@<TRIPOS>MOLECULE
*****
   22    21     0     0     0
SMALL
USER_CHARGES

@<TRIPOS>ATOM
      1 N1         30.7130   13.5510   52.3820 N.4       1 <0>        -0.8530
      2 C1         31.4620   14.6950   51.9120 C.3       1 <0>         0.3970
      3 C2         32.8810   14.5180   52.3840 C.3       1 <0>         0.0000
      4 C3         33.3780   15.4470   53.4440 C.3       1 <0>         0.0000
      5 C4         34.7360   15.9500   53.0330 C.3       1 <0>         0.5030
      6 N2         35.9370   15.2730   53.6170 N.4       1 <0>        -0.8530
      7 C5         31.5000   14.5300   50.4020 C.2       1 <0>         0.9060
      8 O1         32.2430   13.6330   49.8990 O.co2     1 <0>        -0.9000
      9 O2         31.0770   15.4460   49.6420 O.co2     1 <0>        -0.9000
     10 H1         30.5401   12.9287   51.6186 H         1 <0>         0.4500
     11 H2         31.2389   13.0753   53.0871 H         1 <0>         0.4500
     12 H3         29.8419   13.8579   52.7654 H         1 <0>         0.4500
     13 H4         31.0387   15.6535   52.2467 H         1 <0>         0.0000
     14 H5         32.9569   13.4991   52.7915 H         1 <0>         0.0000
     15 H6         33.5029   14.7332   51.5026 H         1 <0>         0.0000
     16 H7         32.6839   16.2931   53.5549 H         1 <0>         0.0000
     17 H8         33.4452   14.9205   54.4075 H         1 <0>         0.0000
     18 H9         34.8026   15.8295   51.9417 H         1 <0>         0.0000
     19 H10        34.7814   16.9817   53.4120 H         1 <0>         0.0000
     20 H11        36.6170   15.1221   52.8995 H         1 <0>         0.4500
     21 H12        36.3301   15.8507   54.3324 H         1 <0>         0.4500
     22 H13        35.6660   14.3940   54.0093 H         1 <0>         0.4500
@<TRIPOS>BOND
     1    1    2 1
     2    2    3 1
     3    2    7 1
     4    3    4 1
     5    4    5 1
     6    5    6 1
     7    7    8 2
     8    7    9 1
     9    1   10 1
    10    1   11 1
    11    1   12 1
    12    2   13 1
    13    3   14 1
    14    3   15 1
    15    4   16 1
    16    4   17 1
    17    5   18 1
    18    5   19 1
    19    6   20 1
    20    6   21 1
    21    6   22 1
