@<TRIPOS>MOLECULE
*****
   46    48     0     0     0
SMALL
USER_CHARGES

@<TRIPOS>ATOM
      1 N1         28.2780   22.0890   42.1630 N.4       1 <0>        -0.8530
      2 C1         29.4880   21.4340   42.6680 C.3       1 <0>         0.3970
      3 C2         29.7260   21.8100   44.1510 C.3       1 <0>         0.0000
      4 C3         28.6830   21.3110   45.1040 C.3       1 <0>         0.2300
      5 S1         29.0020   21.5750   46.8870 S.3       1 <0>        -0.4600
      6 C4         29.4450   19.8900   42.4540 C.2       1 <0>         0.9060
      7 O1         28.5090   19.4360   41.7560 O.co2     1 <0>        -0.9000
      8 O2         30.5390   19.2910   42.4350 O.co2     1 <0>        -0.9000
      9 C5         27.5230   22.4910   47.2440 C.3       1 <0>         0.2300
     10 C6         27.7690   23.9330   47.6120 C.3       1 <0>         0.2800
     11 O3         26.5200   24.6240   47.7660 O.3       1 <0>        -0.5600
     12 C7         28.4970   24.0930   48.9370 C.3       1 <0>         0.2800
     13 O4         29.8560   24.4540   48.6970 O.3       1 <0>        -0.6800
     14 C8         27.7660   25.2090   49.6970 C.3       1 <0>         0.2800
     15 O5         28.5670   26.2530   50.2070 O.3       1 <0>        -0.6800
     16 C9         26.7040   25.6650   48.6900 C.3       1 <0>         0.5356
     17 N2         25.4260   26.0970   49.2450 N.pl3     1 <0>         0.0476
     18 C10        24.6900   25.5240   50.2460 C.2       1 <0>         0.0365
     19 N3         23.6200   26.2040   50.5730 N.2       1 <0>        -0.5653
     20 C11        23.6430   27.2970   49.7170 C.ar      1 <0>         0.2272
     21 C12        22.8070   28.4240   49.6010 C.ar      1 <0>         0.4100
     22 N4         21.7370   28.6320   50.3720 N.pl3     1 <0>        -0.9000
     23 N5         23.1200   29.3420   48.6650 N.ar      1 <0>        -0.6200
     24 C13        24.2100   29.1440   47.9050 C.ar      1 <0>         0.4700
     25 N6         25.0870   28.1280   47.9290 N.ar      1 <0>        -0.5670
     26 C14        24.7420   27.2320   48.8750 C.ar      1 <0>         0.1054
     27 H1         27.6394   22.2382   42.9179 H         1 <0>         0.4500
     28 H2         28.5213   22.9684   41.7537 H         1 <0>         0.4500
     29 H3         27.8477   21.5073   41.4727 H         1 <0>         0.4500
     30 H4         30.3450   21.8021   42.0848 H         1 <0>         0.0000
     31 H5         30.6908   21.3777   44.4548 H         1 <0>         0.0000
     32 H6         29.6951   22.9084   44.2026 H         1 <0>         0.0000
     33 H7         27.7463   21.8344   44.8618 H         1 <0>         0.0000
     34 H8         28.6614   20.2195   44.9690 H         1 <0>         0.0000
     35 H9         26.8871   22.4730   46.3466 H         1 <0>         0.0000
     36 H10        27.0518   22.0131   48.1156 H         1 <0>         0.0000
     37 H11        28.3837   24.3427   46.7970 H         1 <0>         0.0000
     38 H12        28.4994   23.1593   49.5186 H         1 <0>         0.0000
     39 H13        30.0024   24.5343   47.7618 H         1 <0>         0.4000
     40 H14        27.3460   24.8374   50.6433 H         1 <0>         0.0000
     41 H15        28.7470   26.0945   51.1262 H         1 <0>         0.4000
     42 H16        27.0920   26.5817   48.2219 H         1 <0>         0.0000
     43 H17        24.9665   24.5953   50.7230 H         1 <0>         0.1500
     44 H18        22.0206   28.6840   51.3295 H         1 <0>         0.4000
     45 H19        21.2976   29.4905   50.1076 H         1 <0>         0.4000
     46 H20        24.4088   29.9107   47.1708 H         1 <0>         0.1500
@<TRIPOS>BOND
     1    6    7 2
     2    1    2 1
     3    6    8 1
     4    2    6 1
     5    2    3 1
     6    3    4 1
     7    4    5 1
     8    5    9 1
     9    9   10 1
    10   10   11 1
    11   10   12 1
    12   11   16 1
    13   24   25 ar
    14   23   24 ar
    15   25   26 ar
    16   21   23 ar
    17   16   17 1
    18   14   16 1
    19   12   13 1
    20   17   26 1
    21   20   26 ar
    22   12   14 1
    23   17   18 1
    24   20   21 ar
    25   21   22 1
    26   14   15 1
    27   19   20 1
    28   18   19 2
    29    1   27 1
    30    1   28 1
    31    1   29 1
    32    2   30 1
    33    3   31 1
    34    3   32 1
    35    4   33 1
    36    4   34 1
    37    9   35 1
    38    9   36 1
    39   10   37 1
    40   12   38 1
    41   13   39 1
    42   14   40 1
    43   15   41 1
    44   16   42 1
    45   18   43 1
    46   22   44 1
    47   22   45 1
    48   24   46 1
