@<TRIPOS>MOLECULE
*****
    6     5     0     0     0
SMALL
USER_CHARGES

@<TRIPOS>ATOM
      1 C1         36.7450    2.8670    7.0670 C.2       1 <0>         0.8000
      2 C2         36.5880    2.4700    8.4620 C.2       1 <0>         0.8000
      3 O1         35.7350    3.0470    6.3500 O.co2     1 <0>        -0.9000
      4 O2         35.7190    3.0240    9.1690 O.co2     1 <0>        -0.9000
      5 O3         37.8900    3.0270    6.5950 O.co2     1 <0>        -0.9000
      6 O4         37.3200    1.5760    8.9430 O.co2     1 <0>        -0.9000
@<TRIPOS>BOND
     1    1    2 1
     2    1    3 2
     3    1    5 1
     4    2    4 2
     5    2    6 1
