@<TRIPOS>MOLECULE
*****
   85    90     0     0     0
SMALL
USER_CHARGES

@<TRIPOS>ATOM
      1 P1        143.0830   57.5400  -11.4130 P.3       1 <0>         1.4424
      2 O1        143.5910   57.6840  -10.0220 O.3       1 <0>        -0.9500
      3 O2        141.9800   56.5880  -11.7770 O.2       1 <0>        -0.9500
      4 O3        144.3410   57.3370  -12.3600 O.3       1 <0>        -0.5512
      5 C1        145.6220   57.8000  -11.9710 C.3       1 <0>         0.2800
      6 C2        146.6200   56.6910  -12.2280 C.3       1 <0>         0.2800
      7 O4        147.9550   57.1370  -11.8560 O.3       1 <0>        -0.5600
      8 C3        146.3450   55.4320  -11.3870 C.3       1 <0>         0.2800
      9 O5        146.3550   54.2260  -12.2110 O.3       1 <0>        -0.6800
     10 C4        147.5130   55.3820  -10.3890 C.3       1 <0>         0.2800
     11 O6        147.9380   54.0680  -10.0470 O.3       1 <0>        -0.6800
     12 C5        148.6370   56.1090  -11.1380 C.3       1 <0>         0.5356
     13 N1        149.6930   56.7220  -10.3300 N.pl3     1 <0>         0.0476
     14 C6        149.5710   57.4020   -9.1310 C.2       1 <0>         0.0365
     15 N2        150.7310   57.8290   -8.6430 N.2       1 <0>        -0.5653
     16 C7        151.6580   57.4600   -9.6130 C.ar      1 <0>         0.2272
     17 C8        153.0480   57.6310   -9.7150 C.ar      1 <0>         0.4100
     18 N3        153.8240   58.2530   -8.8010 N.pl3     1 <0>        -0.9000
     19 N4        153.6550   57.1000  -10.7970 N.ar      1 <0>        -0.6200
     20 C9        152.9250   56.4740  -11.7170 C.ar      1 <0>         0.4700
     21 N5        151.6180   56.2600  -11.7660 N.ar      1 <0>        -0.5670
     22 C10       151.0400   56.7540  -10.6380 C.ar      1 <0>         0.1054
     23 N6        132.8980   58.0430  -10.4880 N.am      1 <0>        -0.5470
     24 C11       131.7630   57.7560  -11.1610 C.2       1 <0>         0.6900
     25 O7        131.4690   58.3050  -12.2490 O.2       1 <0>        -0.5700
     26 N7        130.8630   56.8130  -10.6420 N.am      1 <0>        -0.4900
     27 C12       131.0750   56.1120   -9.4320 C.2       1 <0>         0.5438
     28 O8        130.3100   55.2280   -8.9860 O.2       1 <0>        -0.5700
     29 C13       132.2840   56.4820   -8.7310 C.ar      1 <0>         0.3962
     30 N8        132.4390   56.1470   -7.4360 N.ar      1 <0>        -0.6200
     31 C14       133.6730   56.1700   -6.8830 C.ar      1 <0>         0.3100
     32 C15       133.9160   55.3750   -5.7580 C.ar      1 <0>        -0.1500
     33 C16       135.2330   55.1550   -5.3370 C.ar      1 <0>        -0.1435
     34 C17       135.5520   54.3000   -4.1160 C.3       1 <0>         0.1435
     35 C18       136.2780   55.6980   -6.1500 C.ar      1 <0>        -0.1435
     36 C19       137.7340   55.5010   -5.8090 C.3       1 <0>         0.1435
     37 C20       136.0150   56.5160   -7.2500 C.ar      1 <0>        -0.1500
     38 C21       134.7090   56.7350   -7.6770 C.ar      1 <0>         0.3610
     39 N9        134.3780   57.5340   -8.7390 N.ar      1 <0>        -0.2100
     40 C22       133.1590   57.4350   -9.3100 C.ar      1 <0>         0.4780
     41 C23       135.2960   58.5430   -9.3390 C.3       1 <0>         0.4880
     42 C24       136.0320   57.9770  -10.5860 C.3       1 <0>         0.2800
     43 O9        136.4600   56.5990  -10.3480 O.3       1 <0>        -0.6800
     44 C25       137.3330   58.7960  -10.8120 C.3       1 <0>         0.2800
     45 O10       136.9310   60.1710  -10.9940 O.3       1 <0>        -0.6800
     46 C26       138.1820   58.4090  -12.0350 C.3       1 <0>         0.2800
     47 O11       138.3290   56.9820  -12.2440 O.3       1 <0>        -0.6800
     48 C27       139.5980   58.9880  -11.8250 C.3       1 <0>         0.2800
     49 O12       140.4050   58.6960  -12.9670 O.3       1 <0>        -0.5512
     50 P2        141.7610   59.5570  -13.1200 P.3       1 <0>         1.4424
     51 O13       142.4740   59.0770  -14.3350 O.2       1 <0>        -0.9500
     52 O14       141.4900   61.0270  -12.9180 O.3       1 <0>        -0.9500
     53 O15       142.5680   59.0120  -11.8270 O.3       1 <0>        -0.5424
     54 H1        145.8925   58.6912  -12.5563 H         1 <0>         0.0000
     55 H2        145.6211   58.0720  -10.9052 H         1 <0>         0.0000
     56 H3        146.5330   56.4481  -13.2973 H         1 <0>         0.0000
     57 H4        145.3572   55.4738  -10.9049 H         1 <0>         0.0000
     58 H5        146.3572   54.4694  -13.1293 H         1 <0>         0.4000
     59 H6        147.2218   55.8292   -9.4271 H         1 <0>         0.0000
     60 H7        148.0327   53.5496  -10.8374 H         1 <0>         0.4000
     61 H8        149.1835   55.3664  -11.7379 H         1 <0>         0.0000
     62 H9        148.6242   57.5696   -8.6392 H         1 <0>         0.1500
     63 H10       154.7344   58.4067   -9.1852 H         1 <0>         0.4000
     64 H11       153.4127   59.1312   -8.5571 H         1 <0>         0.4000
     65 H12       153.4840   56.0795  -12.5527 H         1 <0>         0.1500
     66 H13       133.5461   58.7064  -10.8620 H         1 <0>         0.3700
     67 H14       130.0257   56.6263  -11.1558 H         1 <0>         0.3700
     68 H15       133.0921   54.9333   -5.2171 H         1 <0>         0.1500
     69 H16       135.6288   53.2447   -4.4166 H         1 <0>         0.0000
     70 H17       136.5070   54.6270   -3.6790 H         1 <0>         0.0000
     71 H18       134.7502   54.4113   -3.3712 H         1 <0>         0.0000
     72 H19       138.3249   55.4530   -6.7356 H         1 <0>         0.0000
     73 H20       138.0837   56.3436   -5.1945 H         1 <0>         0.0000
     74 H21       137.8552   54.5625   -5.2482 H         1 <0>         0.0000
     75 H22       136.8343   56.9841   -7.7755 H         1 <0>         0.1500
     76 H23       136.0449   58.8317   -8.5868 H         1 <0>         0.0000
     77 H24       134.6970   59.4096   -9.6555 H         1 <0>         0.0000
     78 H25       135.3450   58.0305  -11.4434 H         1 <0>         0.0000
     79 H26       136.5528   56.1478  -11.1788 H         1 <0>         0.4000
     80 H27       137.9694   58.6001   -9.9364 H         1 <0>         0.0000
     81 H28       136.8427   60.5905  -10.1462 H         1 <0>         0.4000
     82 H29       137.6596   58.8097  -12.9162 H         1 <0>         0.0000
     83 H30       138.3611   56.7996  -13.1758 H         1 <0>         0.4000
     84 H31       140.0506   58.5353  -10.9305 H         1 <0>         0.0000
     85 H32       139.5327   60.0778  -11.6906 H         1 <0>         0.0000
@<TRIPOS>BOND
     1   50   51 2
     2   49   50 1
     3   50   52 1
     4   50   53 1
     5   48   49 1
     6    4    5 1
     7    1    4 1
     8   24   25 2
     9   46   47 1
    10    5    6 1
    11    6    7 1
    12    6    8 1
    13    8    9 1
    14   46   48 1
    15   44   46 1
    16    7   12 1
    17    1   53 1
    18    1    3 2
    19   20   21 ar
    20   21   22 ar
    21   19   20 ar
    22    1    2 1
    23    8   10 1
    24   24   26 am
    25   23   24 am
    26   10   12 1
    27   12   13 1
    28   44   45 1
    29   42   44 1
    30   17   19 ar
    31   26   27 am
    32   13   22 1
    33   16   22 ar
    34   42   43 1
    35   41   42 1
    36   23   40 1
    37   10   11 1
    38   13   14 1
    39   16   17 ar
    40   17   18 1
    41   15   16 1
    42   27   28 2
    43   27   29 1
    44   39   41 1
    45   39   40 ar
    46   29   40 ar
    47   14   15 2
    48   38   39 ar
    49   29   30 ar
    50   37   38 ar
    51   31   38 ar
    52   30   31 ar
    53   35   37 ar
    54   31   32 ar
    55   35   36 1
    56   33   35 ar
    57   32   33 ar
    58   33   34 1
    59    5   54 1
    60    5   55 1
    61    6   56 1
    62    8   57 1
    63    9   58 1
    64   10   59 1
    65   11   60 1
    66   12   61 1
    67   14   62 1
    68   18   63 1
    69   18   64 1
    70   20   65 1
    71   23   66 1
    72   26   67 1
    73   32   68 1
    74   34   69 1
    75   34   70 1
    76   34   71 1
    77   36   72 1
    78   36   73 1
    79   36   74 1
    80   37   75 1
    81   41   76 1
    82   41   77 1
    83   42   78 1
    84   43   79 1
    85   44   80 1
    86   45   81 1
    87   46   82 1
    88   47   83 1
    89   48   84 1
    90   48   85 1
