@<TRIPOS>MOLECULE
*****
   32    32     0     0     0
SMALL
USER_CHARGES

@<TRIPOS>ATOM
      1 C1         49.8160   51.5840    1.7880 C.ar      1 <0>        -0.1790
      2 C2         49.5250   52.7200    2.5170 C.ar      1 <0>        -0.1500
      3 C3         49.8740   52.7390    3.8710 C.ar      1 <0>         0.0825
      4 O1         49.5860   53.8330    4.6630 O.3       1 <0>        -0.5325
      5 C4         50.4780   51.6080    4.4170 C.ar      1 <0>         0.0825
      6 O2         50.8560   51.6570    5.7240 O.3       1 <0>        -0.5325
      7 C5         50.7310   50.4500    3.6730 C.ar      1 <0>        -0.1500
      8 C6         50.3930   50.4350    2.3350 C.ar      1 <0>        -0.1500
      9 C7         49.5700   51.6390    0.3680 C.2       1 <0>         0.9790
     10 O3         48.9890   52.5090   -0.1740 O.co2     1 <0>        -0.9000
     11 O4         49.9540   50.6260   -0.3900 O.co2     1 <0>        -0.9000
     12 H1         49.0422   53.5686    2.0552 H         1 <0>         0.1500
     13 H2         49.5199   53.5591    5.5702 H         1 <0>         0.4500
     14 H3         51.8043   51.6684    5.7796 H         1 <0>         0.4500
     15 H4         51.1819   49.5851    4.1368 H         1 <0>         0.1500
     16 H5         50.5696   49.5596    1.7277 H         1 <0>         0.1500
     17 C8         56.0850   43.6530   50.8930 C.ar      1 <0>        -0.1790
     18 C9         55.1110   44.6040   50.6690 C.ar      1 <0>        -0.1500
     19 C10        54.6360   44.8620   49.3860 C.ar      1 <0>         0.0825
     20 O5         53.6400   45.8420   49.1750 O.3       1 <0>        -0.5325
     21 C11        55.1670   44.1170   48.3390 C.ar      1 <0>         0.0825
     22 O6         54.7010   44.2550   47.0470 O.3       1 <0>        -0.5325
     23 C12        56.1610   43.1980   48.5490 C.ar      1 <0>        -0.1500
     24 C13        56.6230   42.9480   49.8250 C.ar      1 <0>        -0.1500
     25 C14        56.4840   43.2980   52.2540 C.2       1 <0>         0.9790
     26 O7         56.0730   43.8810   53.1960 O.co2     1 <0>        -0.9000
     27 O8         57.2770   42.2390   52.5120 O.co2     1 <0>        -0.9000
     28 H6         54.7096   45.1586   51.5043 H         1 <0>         0.1500
     29 H7         53.2309   46.0619   50.0037 H         1 <0>         0.4500
     30 H8         53.7516   44.2867   47.0540 H         1 <0>         0.4500
     31 H9         56.5857   42.6658   47.7106 H         1 <0>         0.1500
     32 H10        57.3952   42.2114   49.9911 H         1 <0>         0.1500
@<TRIPOS>BOND
     1    9   11 2
     2    9   10 1
     3    1    9 1
     4    1    8 ar
     5    1    2 ar
     6    7    8 ar
     7    2    3 ar
     8    5    7 ar
     9    3    5 ar
    10    3    4 1
    11    5    6 1
    12   21   22 1
    13   21   23 ar
    14   19   21 ar
    15   23   24 ar
    16   19   20 1
    17   18   19 ar
    18   17   24 ar
    19   17   18 ar
    20   17   25 1
    21   25   27 2
    22   25   26 1
    23    2   12 1
    24    4   13 1
    25    6   14 1
    26    7   15 1
    27    8   16 1
    28   18   28 1
    29   20   29 1
    30   22   30 1
    31   23   31 1
    32   24   32 1
