@<TRIPOS>MOLECULE
*****
   32    33     0     0     0
SMALL
USER_CHARGES

@<TRIPOS>ATOM
      1 N1         17.5340    5.6150   24.8170 N.am      1 <0>        -0.4691
      2 C1         17.0210    6.4590   23.8090 C.2       1 <0>         0.8410
      3 N2         17.7350    7.5250   23.4160 N.2       1 <0>        -0.6610
      4 C2         18.8940    7.8250   24.0230 C.2       1 <0>         0.4856
      5 C3         19.4580    6.9760   25.0310 C.2       1 <0>        -0.1356
      6 C4         18.7360    5.9100   25.4090 C.2       1 <0>        -0.0410
      7 O1         15.9010    6.2070   23.3400 O.2       1 <0>        -0.5700
      8 N3         19.5180    8.9520   23.6720 N.pl3     1 <0>        -0.8500
      9 C5         16.6860    4.5230   25.3220 C.3       1 <0>         0.5801
     10 C6         16.3620    3.4390   24.2980 C.3       1 <0>         0.0000
     11 C7         16.0430    2.2690   25.2240 C.3       1 <0>         0.2800
     12 C8         17.0900    2.4280   26.3160 C.3       1 <0>         0.2800
     13 O2         17.3780    3.8580   26.3710 O.3       1 <0>        -0.5600
     14 O3         14.7400    2.3940   25.7910 O.3       1 <0>        -0.6800
     15 C9         18.3670    1.6520   26.0870 C.3       1 <0>         0.2800
     16 O4         18.1480    0.2530   26.3900 O.3       1 <0>        -0.5512
     17 P1         18.8240   -0.9120   25.5270 P.3       1 <0>         1.3712
     18 O5         18.1530   -0.7270   24.2000 O.2       1 <0>        -1.0333
     19 O6         20.2700   -0.5590   25.5970 O.3       1 <0>        -1.0333
     20 O7         18.3660   -2.0590   26.3670 O.3       1 <0>        -1.0333
     21 H1         20.4233    7.1855   25.4677 H         1 <0>         0.1500
     22 H2         19.1089    5.2709   26.1957 H         1 <0>         0.1500
     23 H3         19.6740    9.5141   24.4842 H         1 <0>         0.4000
     24 H4         20.3956    8.7287   23.2478 H         1 <0>         0.4000
     25 H5         15.7457    5.0052   25.6275 H         1 <0>         0.0000
     26 H6         17.2062    3.2274   23.6253 H         1 <0>         0.0000
     27 H7         15.5536    3.7000   23.5991 H         1 <0>         0.0000
     28 H8         16.0593    1.2973   24.7088 H         1 <0>         0.0000
     29 H9         16.6903    2.0192   27.2558 H         1 <0>         0.0000
     30 H10        14.8077    2.4218   26.7382 H         1 <0>         0.4000
     31 H11        18.6735    1.7546   25.0356 H         1 <0>         0.0000
     32 H12        19.1569    2.0478   26.7423 H         1 <0>         0.0000
@<TRIPOS>BOND
     1    2    7 2
     2    2    3 1
     3    3    4 2
     4    4    8 1
     5    1    2 am
     6    4    5 1
     7   17   18 2
     8   10   11 1
     9    9   10 1
    10    1    9 1
    11    1    6 1
    12    5    6 2
    13   11   14 1
    14   11   12 1
    15    9   13 1
    16   17   19 1
    17   17   20 1
    18   16   17 1
    19   12   15 1
    20   15   16 1
    21   12   13 1
    22    5   21 1
    23    6   22 1
    24    8   23 1
    25    8   24 1
    26    9   25 1
    27   10   26 1
    28   10   27 1
    29   11   28 1
    30   12   29 1
    31   14   30 1
    32   15   31 1
    33   15   32 1
