@<TRIPOS>MOLECULE
*****
   32    34     0     0     0
SMALL
USER_CHARGES

@<TRIPOS>ATOM
      1 O1         41.3040   18.5340   40.3360 O.3       1 <0>        -0.6800
      2 C1         40.2670   18.9680   39.4610 C.3       1 <0>         0.2800
      3 C2         40.4920   18.1240   38.2140 C.3       1 <0>         0.2800
      4 O2         40.4630   16.6960   38.5320 O.3       1 <0>        -0.5600
      5 C3         39.3230   18.2730   37.2350 C.3       1 <0>         0.2800
      6 O3         39.7720   19.1640   36.2050 O.3       1 <0>        -0.6800
      7 C4         39.0680   16.8620   36.6630 C.3       1 <0>         0.2800
      8 O4         38.9670   16.8260   35.2350 O.3       1 <0>        -0.6800
      9 C5         40.2330   16.0660   37.2800 C.3       1 <0>         0.5356
     10 N1         40.0650   14.5980   37.3040 N.pl3     1 <0>         0.0476
     11 C6         39.1140   13.8710   38.0350 C.2       1 <0>         0.0365
     12 N2         39.1670   12.5710   37.8550 N.2       1 <0>        -0.5653
     13 C7         40.2220   12.4080   36.9420 C.ar      1 <0>         0.2272
     14 C8         40.8060   11.2500   36.3090 C.ar      1 <0>         0.4100
     15 N3         40.3840   10.0000   36.5210 N.pl3     1 <0>        -0.9000
     16 N4         41.8340   11.4670   35.4560 N.ar      1 <0>        -0.6200
     17 C9         42.2670   12.7170   35.2400 C.ar      1 <0>         0.4700
     18 N5         41.8080   13.8670   35.7620 N.ar      1 <0>        -0.5670
     19 C10        40.7820   13.6410   36.6060 C.ar      1 <0>         0.1054
     20 H1         42.1123   18.4374   39.8464 H         1 <0>         0.4000
     21 H2         40.3437   20.0434   39.2426 H         1 <0>         0.0000
     22 H3         39.2619   18.8419   39.8898 H         1 <0>         0.0000
     23 H4         41.4554   18.4597   37.8027 H         1 <0>         0.0000
     24 H5         38.4022   18.6672   37.6897 H         1 <0>         0.0000
     25 H6         39.8713   20.0383   36.5631 H         1 <0>         0.4000
     26 H7         38.0886   16.4340   36.9230 H         1 <0>         0.0000
     27 H8         38.0514   16.8180   34.9820 H         1 <0>         0.4000
     28 H9         41.1327   16.1078   36.6485 H         1 <0>         0.0000
     29 H10        38.3972   14.3414   38.6918 H         1 <0>         0.1500
     30 H11        40.2786    9.5301   35.6446 H         1 <0>         0.4000
     31 H12        41.0535    9.5129   37.0818 H         1 <0>         0.4000
     32 H13        43.0960   12.8127   34.5545 H         1 <0>         0.1500
@<TRIPOS>BOND
     1    7    8 1
     2   16   17 ar
     3   17   18 ar
     4   14   16 ar
     5   18   19 ar
     6    5    6 1
     7   14   15 1
     8   13   14 ar
     9   13   19 ar
    10   10   19 1
    11    5    7 1
    12    7    9 1
    13   12   13 1
    14    3    5 1
    15    9   10 1
    16    4    9 1
    17   10   11 1
    18   11   12 2
    19    3    4 1
    20    2    3 1
    21    1    2 1
    22    1   20 1
    23    2   21 1
    24    2   22 1
    25    3   23 1
    26    5   24 1
    27    6   25 1
    28    7   26 1
    29    8   27 1
    30    9   28 1
    31   11   29 1
    32   15   30 1
    33   15   31 1
    34   17   32 1
