@<TRIPOS>MOLECULE
*****
   70    74     0     0     0
SMALL
USER_CHARGES

@<TRIPOS>ATOM
      1 P1         19.2220   51.6360  -19.1860 P.3       1 <0>         1.4424
      2 O1         18.3400   51.7970  -20.3580 O.2       1 <0>        -0.9500
      3 O2         18.8850   52.5330  -18.0510 O.3       1 <0>        -0.9500
      4 O3         20.6820   52.1340  -19.5960 O.3       1 <0>        -0.5512
      5 C1         21.4290   51.5430  -20.6790 C.3       1 <0>         0.2800
      6 C2         22.5290   52.5590  -20.8420 C.3       1 <0>         0.2800
      7 O4         23.4790   52.1310  -21.8670 O.3       1 <0>        -0.5600
      8 C3         22.0160   53.9110  -21.3390 C.3       1 <0>         0.2800
      9 O5         22.6830   54.9990  -20.6450 O.3       1 <0>        -0.6800
     10 C4         22.3910   53.7990  -22.8110 C.3       1 <0>         0.2800
     11 O6         22.4990   55.1030  -23.3910 O.3       1 <0>        -0.6800
     12 C5         23.7870   53.1930  -22.6500 C.3       1 <0>         0.5356
     13 N1         24.2320   52.6270  -23.8880 N.pl3     1 <0>         0.0476
     14 C6         23.4560   52.0620  -24.8440 C.2       1 <0>         0.0365
     15 N2         24.1630   51.5750  -25.8700 N.2       1 <0>        -0.5653
     16 C7         25.4680   51.8990  -25.5240 C.ar      1 <0>         0.2272
     17 C8         26.6910   51.6480  -26.1780 C.ar      1 <0>         0.4100
     18 N3         26.8140   51.0280  -27.3490 N.pl3     1 <0>        -0.9000
     19 N4         27.8150   52.0740  -25.5590 N.ar      1 <0>        -0.6200
     20 C9         27.6880   52.6870  -24.3510 C.ar      1 <0>         0.4700
     21 N5         26.5990   52.9420  -23.6710 N.ar      1 <0>        -0.5670
     22 C10        25.5200   52.5410  -24.3140 C.ar      1 <0>         0.1054
     23 O7         19.2770   50.0880  -18.7990 O.3       1 <0>        -0.5424
     24 P2         19.6010   49.4760  -17.3370 P.3       1 <0>         1.4424
     25 O8         18.4110   49.2370  -16.4750 O.3       1 <0>        -0.9500
     26 O9         20.6660   50.3020  -16.6790 O.2       1 <0>        -0.9500
     27 O10        20.1090   48.0460  -17.8670 O.3       1 <0>        -0.5512
     28 C11        21.4660   47.9040  -18.3990 C.3       1 <0>         0.2800
     29 C12        21.6630   46.4390  -18.7180 C.3       1 <0>         0.2800
     30 O11        21.5490   45.6870  -17.4900 O.3       1 <0>        -0.5600
     31 C13        20.6660   45.8280  -19.7060 C.3       1 <0>         0.2800
     32 O12        21.2600   44.6920  -20.3570 O.3       1 <0>        -0.6800
     33 C14        19.6420   45.2510  -18.7410 C.3       1 <0>         0.2800
     34 O13        18.8840   44.1960  -19.3620 O.3       1 <0>        -0.6800
     35 C15        20.5610   44.6890  -17.6800 C.3       1 <0>         0.7680
     36 N6         19.8780   44.3750  -16.4350 N.ar      1 <0>        -0.2100
     37 C16        19.0560   45.3180  -15.8240 C.ar      1 <0>         0.2110
     38 C17        18.4130   45.0640  -14.5440 C.ar      1 <0>         0.0862
     39 C18        17.7320   46.2170  -13.8990 C.2       1 <0>         0.5438
     40 O14        17.2370   45.9260  -12.7980 O.2       1 <0>        -0.5700
     41 N7         17.6580   47.4710  -14.4380 N.am      1 <0>        -0.8000
     42 C19        18.5660   43.7530  -13.9120 C.ar      1 <0>        -0.1500
     43 C20        19.4710   42.7970  -14.6370 C.ar      1 <0>        -0.1500
     44 C21        20.0370   43.1270  -15.7860 C.ar      1 <0>         0.2110
     45 H1         20.8264   51.4234  -21.5914 H         1 <0>         0.0000
     46 H2         21.7810   50.5194  -20.4830 H         1 <0>         0.0000
     47 H3         22.9813   52.6494  -19.8434 H         1 <0>         0.0000
     48 H4         20.9501   54.1248  -21.1714 H         1 <0>         0.0000
     49 H5         22.8286   54.7549  -19.7385 H         1 <0>         0.4000
     50 H6         21.6865   53.2397  -23.4442 H         1 <0>         0.0000
     51 H7         22.5229   55.7559  -22.7013 H         1 <0>         0.4000
     52 H8         24.5432   53.9074  -22.2926 H         1 <0>         0.0000
     53 H9         22.3789   52.0101  -24.7841 H         1 <0>         0.1500
     54 H10        26.8449   51.7056  -28.0838 H         1 <0>         0.4000
     55 H11        27.6578   50.4914  -27.3549 H         1 <0>         0.4000
     56 H12        28.6112   53.0066  -23.8906 H         1 <0>         0.1500
     57 H13        22.2049   48.2357  -17.6547 H         1 <0>         0.0000
     58 H14        21.6012   48.5227  -19.2984 H         1 <0>         0.0000
     59 H15        22.6522   46.3826  -19.1959 H         1 <0>         0.0000
     60 H16        20.3063   46.5365  -20.4667 H         1 <0>         0.0000
     61 H17        21.3910   44.8867  -21.2776 H         1 <0>         0.4000
     62 H18        18.8928   45.9707  -18.3795 H         1 <0>         0.0000
     63 H19        18.7171   44.4179  -20.2705 H         1 <0>         0.4000
     64 H20        20.9863   43.7272  -18.0025 H         1 <0>         0.0000
     65 H21        18.8909   46.2658  -16.3146 H         1 <0>         0.1500
     66 H22        17.1503   48.0645  -13.8135 H         1 <0>         0.3700
     67 H23        18.0486   47.7499  -15.3153 H         1 <0>         0.3700
     68 H24        18.0651   43.4915  -12.9916 H         1 <0>         0.1500
     69 H25        19.6627   41.8228  -14.2121 H         1 <0>         0.1500
     70 H26        20.6663   42.3907  -16.2638 H         1 <0>         0.1500
@<TRIPOS>BOND
     1   17   18 1
     2   17   19 ar
     3   16   17 ar
     4   15   16 1
     5   14   15 2
     6   19   20 ar
     7   16   22 ar
     8   13   14 1
     9   20   21 ar
    10   13   22 1
    11   21   22 ar
    12   12   13 1
    13   10   11 1
    14   10   12 1
    15    8   10 1
    16    7   12 1
    17    6    7 1
    18    6    8 1
    19    8    9 1
    20    5    6 1
    21    4    5 1
    22    1    2 2
    23   31   32 1
    24   31   33 1
    25   29   31 1
    26    1    4 1
    27   33   34 1
    28    1   23 1
    29    1    3 1
    30   23   24 1
    31   33   35 1
    32   28   29 1
    33   29   30 1
    34   27   28 1
    35   24   27 1
    36   30   35 1
    37   35   36 1
    38   24   26 2
    39   24   25 1
    40   36   37 ar
    41   36   44 ar
    42   37   38 ar
    43   43   44 ar
    44   42   43 ar
    45   38   42 ar
    46   38   39 1
    47   39   41 am
    48   39   40 2
    49    5   45 1
    50    5   46 1
    51    6   47 1
    52    8   48 1
    53    9   49 1
    54   10   50 1
    55   11   51 1
    56   12   52 1
    57   14   53 1
    58   18   54 1
    59   18   55 1
    60   20   56 1
    61   28   57 1
    62   28   58 1
    63   29   59 1
    64   31   60 1
    65   32   61 1
    66   33   62 1
    67   34   63 1
    68   35   64 1
    69   37   65 1
    70   41   66 1
    71   41   67 1
    72   42   68 1
    73   43   69 1
    74   44   70 1
