@<TRIPOS>MOLECULE
*****
   18    17     0     0     0
SMALL
USER_CHARGES

@<TRIPOS>ATOM
      1 C1         61.8690   67.0470   68.4350 C.2       1 <0>         0.9060
      2 C2         60.4440   66.5430   68.0510 C.3       1 <0>        -0.1060
      3 C3         59.8300   66.5620   66.5700 C.3       1 <0>         0.1740
      4 C4         60.8570   65.9150   65.4600 C.2       1 <0>         0.9060
      5 C5         58.4780   65.7290   66.7250 C.3       1 <0>        -0.1060
      6 C6         58.1330   65.1330   68.0500 C.2       1 <0>         0.9060
      7 O1         62.0150   67.3960   69.6560 O.co2     1 <0>        -0.9000
      8 O2         62.8240   67.1790   67.5370 O.co2     1 <0>        -0.9000
      9 O3         61.3920   66.6550   64.5760 O.co2     1 <0>        -0.9000
     10 O4         61.0930   64.6720   65.4740 O.co2     1 <0>        -0.9000
     11 O5         57.2900   65.7170   68.7180 O.co2     1 <0>        -0.9000
     12 O6         58.7760   64.1090   68.3980 O.co2     1 <0>        -0.9000
     13 O7         59.5080   67.9530   66.3180 O.3       1 <0>        -0.6800
     14 H1         59.7599   67.1691   68.6426 H         1 <0>         0.0000
     15 H2         60.5530   65.4612   68.2180 H         1 <0>         0.0000
     16 H3         57.6594   66.4198   66.4746 H         1 <0>         0.0000
     17 H4         58.6266   64.8567   66.0715 H         1 <0>         0.0000
     18 H5         59.4376   68.4169   67.1441 H         1 <0>         0.4000
@<TRIPOS>BOND
     1    4    9 2
     2    4   10 1
     3    3    4 1
     4    3   13 1
     5    3    5 1
     6    2    3 1
     7    5    6 1
     8    1    8 2
     9    6   12 2
    10    6   11 1
    11    1    2 1
    12    1    7 1
    13    2   14 1
    14    2   15 1
    15    5   16 1
    16    5   17 1
    17   13   18 1
