@<TRIPOS>MOLECULE
*****
   14    13     0     0     0
SMALL
USER_CHARGES

@<TRIPOS>ATOM
      1 O1          3.4220   -8.2760   84.0500 O.co2     1 <0>        -0.9000
      2 O2          4.2460   -7.3980   85.9400 O.co2     1 <0>        -0.9000
      3 C1          3.4260   -7.4470   84.9710 C.2       1 <0>         0.9060
      4 C2          2.3640   -6.3470   85.0040 C.3       1 <0>         0.1740
      5 O3          1.6580   -6.2060   83.7740 O.3       1 <0>        -0.6800
      6 C3          1.3740   -6.5990   86.1490 C.3       1 <0>         0.1740
      7 O4          0.3430   -7.4890   85.7720 O.3       1 <0>        -0.6800
      8 C4          0.7610   -5.2630   86.5520 C.2       1 <0>         0.9060
      9 O5         -0.3620   -4.9370   86.2640 O.co2     1 <0>        -0.9000
     10 O6          1.5500   -4.5360   87.2310 O.co2     1 <0>        -0.9000
     11 H1          2.9015   -5.4018   85.1708 H         1 <0>         0.0000
     12 H2          0.7242   -6.1746   83.9461 H         1 <0>         0.4000
     13 H3          1.9186   -7.0590   86.9868 H         1 <0>         0.0000
     14 H4         -0.1959   -7.6887   86.5285 H         1 <0>         0.4000
@<TRIPOS>BOND
     1    1    3 2
     2    2    3 1
     3    3    4 1
     4    4    5 1
     5    4    6 1
     6    6    7 1
     7    6    8 1
     8    8    9 2
     9    8   10 1
    10    4   11 1
    11    5   12 1
    12    6   13 1
    13    7   14 1
