@<TRIPOS>MOLECULE
*****
   16    15     0     0     0
SMALL
USER_CHARGES

@<TRIPOS>ATOM
      1 C1         28.0280   56.0400   45.3610 C.2       1 <0>         0.6900
      2 C2         30.0250   56.5890   44.0580 C.3       1 <0>         0.3001
      3 C3         28.4880   55.3090   43.0600 C.3       1 <0>         0.1941
      4 C4         28.3710   55.6530   41.6050 C.2       1 <0>         0.9060
      5 N1         28.4010   54.8540   45.8830 N.am      1 <0>        -0.8000
      6 N2         28.6000   56.3790   44.1130 N.am      1 <0>        -0.6602
      7 O1         28.0340   54.8000   40.7440 O.co2     1 <0>        -0.9000
      8 O2         28.5940   56.8330   41.3240 O.co2     1 <0>        -0.9000
      9 O3         26.8180   56.2820   45.5210 O.2       1 <0>        -0.5700
     10 H1         30.3480   56.6425   43.0079 H         1 <0>         0.0000
     11 H2         30.2766   57.5310   44.5673 H         1 <0>         0.0000
     12 H3         30.5380   55.7536   44.5570 H         1 <0>         0.0000
     13 H4         27.5765   54.7445   43.3060 H         1 <0>         0.0000
     14 H5         29.4655   54.8075   43.1153 H         1 <0>         0.0000
     15 H6         29.0450   54.4169   45.2552 H         1 <0>         0.3700
     16 H7         28.0860   54.4747   46.7530 H         1 <0>         0.3700
@<TRIPOS>BOND
     1    1    5 am
     2    1    6 am
     3    1    9 2
     4    2    6 1
     5    3    4 1
     6    3    6 1
     7    4    7 2
     8    4    8 1
     9    2   10 1
    10    2   11 1
    11    2   12 1
    12    3   13 1
    13    3   14 1
    14    5   15 1
    15    5   16 1
