@<TRIPOS>MOLECULE
*****
   45    47     0     0     0
SMALL
USER_CHARGES

@<TRIPOS>ATOM
      1 P1         36.8810  -32.3900   12.4390 P.3       1 <0>         1.4380
      2 O1         38.1440  -32.8270   13.1120 O.3       1 <0>        -1.0333
      3 O2         36.0140  -31.4800   13.1990 O.3       1 <0>        -1.0333
      4 O3         36.1900  -33.5620   11.8810 O.2       1 <0>        -1.0333
      5 N1         37.4320  -31.4970   11.1070 N.pl3     1 <0>        -1.0960
      6 P2         36.4150  -30.6790   10.0490 P.3       1 <0>         1.5092
      7 O4         35.3920  -29.8840   10.7390 O.3       1 <0>        -0.9500
      8 O5         35.9190  -31.6360    9.0170 O.2       1 <0>        -0.9500
      9 O6         37.4040  -29.5910    9.3150 O.3       1 <0>        -0.5424
     10 P3         37.3620  -28.0230    9.4560 P.3       1 <0>         1.4424
     11 O7         36.1100  -27.4400    8.9520 O.2       1 <0>        -0.9500
     12 O8         37.8300  -27.6780   10.8370 O.3       1 <0>        -0.9500
     13 O9         38.5380  -27.6370    8.4850 O.3       1 <0>        -0.5512
     14 C1         39.9390  -27.9170    8.7860 C.3       1 <0>         0.2800
     15 C2         40.8620  -26.8290    8.2300 C.3       1 <0>         0.2800
     16 O10        40.7610  -26.8390    6.7420 O.3       1 <0>        -0.5600
     17 C3         40.4620  -25.4260    8.7140 C.3       1 <0>         0.2800
     18 O11        41.6890  -24.6890    8.9130 O.3       1 <0>        -0.6800
     19 C4         39.6490  -24.8240    7.4950 C.3       1 <0>         0.2800
     20 O12        39.8130  -23.4070    7.4010 O.3       1 <0>        -0.6800
     21 C5         40.4040  -25.5140    6.3260 C.3       1 <0>         0.5356
     22 N2         39.5180  -25.6450    5.1630 N.pl3     1 <0>         0.0476
     23 C6         38.2730  -26.2320    5.0450 C.2       1 <0>         0.0365
     24 N3         37.7840  -26.3430    3.8340 N.2       1 <0>        -0.5653
     25 C7         38.7790  -25.6980    3.0740 C.2       1 <0>         0.1412
     26 C8         38.8660  -25.5160    1.6250 C.2       1 <0>         0.7160
     27 O13        38.0330  -25.8660    0.7850 O.2       1 <0>        -0.5700
     28 N4         40.0600  -24.8730    1.2620 N.am      1 <0>        -0.4900
     29 C9         41.0780  -24.4580    2.1100 C.2       1 <0>         0.5600
     30 N5         42.1510  -23.8680    1.5980 N.pl3     1 <0>        -0.8500
     31 N6         41.0480  -24.7200    3.4410 N.2       1 <0>        -0.5760
     32 C10        39.8730  -25.3200    3.8520 C.2       1 <0>        -0.0256
     33 H1         37.9208  -32.1576   10.5371 H         1 <0>         0.4200
     34 H2         40.2132  -28.8804    8.3315 H         1 <0>         0.0000
     35 H3         40.0586  -27.9464    9.8791 H         1 <0>         0.0000
     36 H4         41.8824  -27.0434    8.5805 H         1 <0>         0.0000
     37 H5         39.8760  -25.4037    9.6447 H         1 <0>         0.0000
     38 H6         42.1016  -24.5273    8.0727 H         1 <0>         0.4000
     39 H7         38.5622  -24.9869    7.5426 H         1 <0>         0.0000
     40 H8         39.8494  -23.0334    8.2737 H         1 <0>         0.4000
     41 H9         41.2884  -24.9153    6.0625 H         1 <0>         0.0000
     42 H10        37.7286  -26.5827    5.9093 H         1 <0>         0.1500
     43 H11        40.1916  -24.6945    0.2869 H         1 <0>         0.3700
     44 H12        42.0149  -23.7196    0.6185 H         1 <0>         0.4000
     45 H13        42.2958  -22.9885    2.0513 H         1 <0>         0.4000
@<TRIPOS>BOND
     1   26   27 2
     2   26   28 am
     3   28   29 1
     4   29   30 1
     5   25   26 1
     6   29   31 2
     7   24   25 1
     8   25   32 2
     9   31   32 1
    10   23   24 2
    11   22   32 1
    12   22   23 1
    13   21   22 1
    14   16   21 1
    15   19   21 1
    16   15   16 1
    17   19   20 1
    18   17   19 1
    19   15   17 1
    20   14   15 1
    21   13   14 1
    22   10   13 1
    23   17   18 1
    24   10   11 2
    25    6    8 2
    26    9   10 1
    27    6    9 1
    28   10   12 1
    29    6    7 1
    30    5    6 1
    31    1    5 1
    32    1    4 2
    33    1    2 1
    34    1    3 1
    35    5   33 1
    36   14   34 1
    37   14   35 1
    38   15   36 1
    39   17   37 1
    40   18   38 1
    41   19   39 1
    42   20   40 1
    43   21   41 1
    44   23   42 1
    45   28   43 1
    46   30   44 1
    47   30   45 1
