@<TRIPOS>MOLECULE
*****
   27    27     0     0     0
SMALL
USER_CHARGES

@<TRIPOS>ATOM
      1 C1         42.1910   38.9480   19.0620 C.3       1 <0>         0.5600
      2 C2         43.5310   39.1730   18.3610 C.3       1 <0>         0.2800
      3 C3         44.1790   40.3940   19.0500 C.3       1 <0>         0.2800
      4 C4         43.2340   41.5640   18.9230 C.3       1 <0>         0.2800
      5 C5         41.8460   41.2260   19.4970 C.3       1 <0>         0.2800
      6 C6         40.8580   42.3270   19.2750 C.3       1 <0>         0.2800
      7 O1         41.5660   37.8070   18.3030 O.3       1 <0>        -0.6800
      8 O2         44.3790   38.0470   18.5350 O.3       1 <0>        -0.6800
      9 O3         45.4410   40.6910   18.4650 O.3       1 <0>        -0.6800
     10 O4         43.6810   42.7130   19.6210 O.3       1 <0>        -0.6800
     11 O5         41.3360   40.0600   18.7890 O.3       1 <0>        -0.5600
     12 O6         39.5970   42.0920   19.8700 O.3       1 <0>        -0.5512
     13 P1         39.3400   42.3090   21.4390 P.3       1 <0>         1.3712
     14 O7         37.9140   42.2510   21.7560 O.2       1 <0>        -1.0333
     15 O8         39.7380   43.6960   21.8570 O.3       1 <0>        -1.0333
     16 O9         40.1420   41.3670   22.2240 O.3       1 <0>        -1.0333
     17 H1         42.3193   38.7908   20.1431 H         1 <0>         0.0000
     18 H2         43.3838   39.3299   17.2823 H         1 <0>         0.0000
     19 H3         44.3579   40.1756   20.1132 H         1 <0>         0.0000
     20 H4         43.1885   41.7728   17.8440 H         1 <0>         0.0000
     21 H5         41.9631   41.0597   20.5780 H         1 <0>         0.0000
     22 H6         41.2726   43.2492   19.7083 H         1 <0>         0.0000
     23 H7         40.6940   42.3990   18.1897 H         1 <0>         0.0000
     24 H8         41.4344   38.0628   17.3976 H         1 <0>         0.4000
     25 H9         44.5683   37.6588   17.6888 H         1 <0>         0.4000
     26 H10        45.3458   40.7572   17.5221 H         1 <0>         0.4000
     27 H11        43.7811   42.5052   20.5426 H         1 <0>         0.4000
@<TRIPOS>BOND
     1    1    7 1
     2    2    8 1
     3    2    3 1
     4    1    2 1
     5    3    9 1
     6    1   11 1
     7    5   11 1
     8    3    4 1
     9    4    5 1
    10    4   10 1
    11    5    6 1
    12    6   12 1
    13   12   13 1
    14   13   14 2
    15   13   15 1
    16   13   16 1
    17    1   17 1
    18    2   18 1
    19    3   19 1
    20    4   20 1
    21    5   21 1
    22    6   22 1
    23    6   23 1
    24    7   24 1
    25    8   25 1
    26    9   26 1
    27   10   27 1
