@<TRIPOS>MOLECULE
*****
   17    18     0     0     0
SMALL
USER_CHARGES

@<TRIPOS>ATOM
      1 N1          5.5810   11.7160   30.6160 N.pl3     1 <0>         0.2996
      2 N2          6.2420   11.2380   29.5200 N.2       1 <0>        -0.7068
      3 C1          7.6290   11.2070   29.8480 C.2       1 <0>         0.3458
      4 C2          8.8020   11.8470   32.0270 C.ar      1 <0>        -0.1500
      5 C3          8.5440   12.3670   33.3140 C.ar      1 <0>        -0.1500
      6 C4          7.2630   12.6530   33.7320 C.ar      1 <0>        -0.1500
      7 C5          6.1800   12.4910   32.8840 C.ar      1 <0>         0.1330
      8 C6          6.4330   11.9290   31.5900 C.ar      1 <0>        -0.1516
      9 C7          7.7030   11.6720   31.1570 C.ar      1 <0>         0.0000
     10 N3          4.9440   12.8040   33.2270 N.pl3     1 <0>         0.9070
     11 O1          4.7790   13.2640   34.3380 O.2       1 <0>        -0.5200
     12 O2          3.9280   12.6180   32.5870 O.2       1 <0>        -0.5200
     13 Br1         8.9410   10.7540   28.7660 Br        1 <0>        -0.0570
     14 H1          4.5957   11.8789   30.6677 H         1 <0>         0.2700
     15 H2          9.8050   11.5918   31.7183 H         1 <0>         0.1500
     16 H3          9.3702   12.5447   33.9864 H         1 <0>         0.1500
     17 H4          7.1004   13.0097   34.7383 H         1 <0>         0.1500
@<TRIPOS>BOND
     1    3   13 1
     2    2    3 2
     3    1    2 1
     4    3    9 1
     5    1    8 1
     6    8    9 ar
     7    4    9 ar
     8    7    8 ar
     9    4    5 ar
    10   10   12 2
    11    7   10 1
    12    6    7 ar
    13   10   11 2
    14    5    6 ar
    15    1   14 1
    16    4   15 1
    17    5   16 1
    18    6   17 1
