@<TRIPOS>MOLECULE
*****
   28    27     0     0     0
SMALL
USER_CHARGES

@<TRIPOS>ATOM
      1 N1         23.0800   12.3040   -3.9240 N.4       1 <0>        -0.8530
      2 C1         22.9300   12.2520   -5.4030 C.3       1 <0>         0.3970
      3 C2         23.8930   13.3440   -5.9190 C.2       1 <0>         0.9060
      4 O1         24.1780   13.5660   -7.0630 O.co2     1 <0>        -0.9000
      5 O2         24.3900   14.0690   -4.8950 O.co2     1 <0>        -0.9000
      6 C3         21.4730   12.6040   -5.7980 C.3       1 <0>         0.0000
      7 C4         20.9930   13.9780   -5.3450 C.3       1 <0>         0.0000
      8 C5         19.4760   14.1420   -5.3740 C.3       1 <0>         0.0000
      9 C6         19.0450   15.6080   -5.3240 C.3       1 <0>         0.0000
     10 B1         17.5050   15.9030   -5.1250 Br        1 <0>         0.0000
     11 O3         17.3020   17.3120   -4.8480 O.3       1 <0>        -0.4000
     12 O4         17.0110   15.1980   -3.9540 O.3       1 <0>        -0.4000
     13 O5         16.6620   15.5370   -6.2480 O.3       1 <0>        -0.4000
     14 H1         24.0515   12.3157   -3.6872 H         1 <0>         0.4500
     15 H2         22.6417   13.1317   -3.5736 H         1 <0>         0.4500
     16 H3         22.6476   11.4995   -3.5169 H         1 <0>         0.4500
     17 H4         23.1513   11.2580   -5.8189 H         1 <0>         0.0000
     18 H5         21.4091   12.5742   -6.8957 H         1 <0>         0.0000
     19 H6         20.8295   11.8694   -5.2918 H         1 <0>         0.0000
     20 H7         21.3327   14.1335   -4.3104 H         1 <0>         0.0000
     21 H8         21.4103   14.7134   -6.0486 H         1 <0>         0.0000
     22 H9         19.0952   13.6983   -6.3057 H         1 <0>         0.0000
     23 H10        19.0667   13.6408   -4.4844 H         1 <0>         0.0000
     24 H11        19.5722   16.0687   -4.4756 H         1 <0>         0.0000
     25 H12        19.2898   16.0138   -6.3167 H         1 <0>         0.0000
     26 H13        17.2576   17.4474   -3.9087 H         1 <0>         0.4000
     27 H14        16.9032   14.2770   -4.1604 H         1 <0>         0.4000
     28 H15        15.7616   15.4570   -5.9558 H         1 <0>         0.4000
@<TRIPOS>BOND
     1    3    4 2
     2   10   13 1
     3    2    3 1
     4    3    5 1
     5    2    6 1
     6    6    7 1
     7    1    2 1
     8    7    8 1
     9    8    9 1
    10    9   10 1
    11   10   11 1
    12   10   12 1
    13    1   14 1
    14    1   15 1
    15    1   16 1
    16    2   17 1
    17    6   18 1
    18    6   19 1
    19    7   20 1
    20    7   21 1
    21    8   22 1
    22    8   23 1
    23    9   24 1
    24    9   25 1
    25   11   26 1
    26   12   27 1
    27   13   28 1
