@<TRIPOS>MOLECULE
*****
   46    48     0     0     0
SMALL
USER_CHARGES

@<TRIPOS>ATOM
      1 N1          8.3210  -23.2530   -2.4870 N.4       1 <0>        -0.8530
      2 C1          6.9640  -23.8790   -1.9570 C.3       1 <0>         0.3970
      3 C2          6.1250  -22.7980   -1.2670 C.3       1 <0>         0.0000
      4 C3          5.3460  -23.7550   -0.2180 C.3       1 <0>         0.2300
      5 S1          4.2920  -22.8100    0.8620 S.3       1 <0>        -0.4600
      6 C4          6.3840  -24.6370   -3.2920 C.2       1 <0>         0.9060
      7 O1          6.9060  -24.5180   -4.3750 O.co2     1 <0>        -0.9000
      8 O2          5.2840  -25.1810   -3.0930 O.co2     1 <0>        -0.9000
      9 C5          5.5270  -22.5210    2.1170 C.3       1 <0>         0.2300
     10 C6          5.7140  -23.7230    3.2310 C.3       1 <0>         0.2800
     11 O3          6.6890  -23.2950    4.1940 O.3       1 <0>        -0.5600
     12 C7          4.4430  -24.6330    3.6860 C.3       1 <0>         0.2800
     13 O4          4.5110  -25.7420    3.0600 O.3       1 <0>        -0.6800
     14 C8          4.8180  -24.6950    5.1230 C.3       1 <0>         0.2800
     15 O5          4.5320  -25.7900    5.9490 O.3       1 <0>        -0.6800
     16 C9          6.4260  -24.2180    5.1640 C.3       1 <0>         0.5356
     17 N2          6.8850  -23.8560    6.4770 N.pl3     1 <0>         0.0476
     18 C10         6.4150  -23.1210    7.5070 C.2       1 <0>         0.0365
     19 N3          7.0920  -22.9770    8.5560 N.2       1 <0>        -0.5653
     20 C11         8.1280  -23.4580    8.2340 C.ar      1 <0>         0.2272
     21 C12         9.6130  -23.5940    8.9770 C.ar      1 <0>         0.4100
     22 N4          9.9030  -23.1820   10.1010 N.pl3     1 <0>        -0.9000
     23 N5         10.6150  -24.3240    8.0990 N.ar      1 <0>        -0.6200
     24 C13        10.6580  -24.9670    6.8560 C.ar      1 <0>         0.4700
     25 N6          9.3140  -24.8640    6.2350 N.ar      1 <0>        -0.5670
     26 C14         8.0100  -24.0690    6.8900 C.ar      1 <0>         0.1054
     27 H1          8.2637  -23.1212   -3.4766 H         1 <0>         0.4500
     28 H2          8.4774  -22.3712   -2.0420 H         1 <0>         0.4500
     29 H3          9.0778  -23.8718   -2.2766 H         1 <0>         0.4500
     30 H4          7.0164  -24.6208   -1.1464 H         1 <0>         0.0000
     31 H5          6.7287  -22.0162   -0.7830 H         1 <0>         0.0000
     32 H6          5.4876  -22.1915   -1.9273 H         1 <0>         0.0000
     33 H7          4.7284  -24.4705   -0.7807 H         1 <0>         0.0000
     34 H8          6.0934  -24.2786    0.3962 H         1 <0>         0.0000
     35 H9          6.4924  -22.3932    1.6055 H         1 <0>         0.0000
     36 H10         5.1865  -21.6386    2.6787 H         1 <0>         0.0000
     37 H11         6.1191  -24.6048    2.7130 H         1 <0>         0.0000
     38 H12         3.4118  -24.2985    3.4995 H         1 <0>         0.0000
     39 H13         4.5279  -25.5776    2.1245 H         1 <0>         0.4000
     40 H14         4.0954  -24.0393    5.6308 H         1 <0>         0.0000
     41 H15         4.4673  -26.5771    5.4210 H         1 <0>         0.4000
     42 H16         7.0370  -25.0996    4.9200 H         1 <0>         0.0000
     43 H17         5.4457  -22.6511    7.4287 H         1 <0>         0.1500
     44 H18         9.9816  -23.9554   10.7300 H         1 <0>         0.4000
     45 H19        10.7750  -22.6941   10.0623 H         1 <0>         0.4000
     46 H20        11.5199  -25.4536    6.4239 H         1 <0>         0.1500
@<TRIPOS>BOND
     1    6    7 2
     2    6    8 1
     3    2    6 1
     4    1    2 1
     5    2    3 1
     6    3    4 1
     7    4    5 1
     8    5    9 1
     9    9   10 1
    10   12   13 1
    11   10   12 1
    12   10   11 1
    13   12   14 1
    14   11   16 1
    15   14   16 1
    16   14   15 1
    17   16   17 1
    18   24   25 ar
    19   25   26 ar
    20   17   26 1
    21   17   18 1
    22   23   24 ar
    23   20   26 ar
    24   18   19 2
    25   21   23 ar
    26   19   20 1
    27   20   21 ar
    28   21   22 1
    29    1   27 1
    30    1   28 1
    31    1   29 1
    32    2   30 1
    33    3   31 1
    34    3   32 1
    35    4   33 1
    36    4   34 1
    37    9   35 1
    38    9   36 1
    39   10   37 1
    40   12   38 1
    41   13   39 1
    42   14   40 1
    43   15   41 1
    44   16   42 1
    45   18   43 1
    46   22   44 1
    47   22   45 1
    48   24   46 1
