@<TRIPOS>MOLECULE
*****
  109   108     0     0     0
SMALL
USER_CHARGES

@<TRIPOS>ATOM
      1 C1          2.2730   68.8440   98.8540 C.3       1 <0>         0.2800
      2 C2          1.9930   70.0680   99.4380 C.3       1 <0>         0.2800
      3 C3          3.0940   70.8930   99.2720 C.3       1 <0>         0.2800
      4 C4          4.1500   65.2140   97.3800 C.3       1 <0>         0.2800
      5 C5          3.9150   63.6850   97.4480 C.3       1 <0>         0.5030
      6 C6          5.3680   63.2180   95.5070 C.3       1 <0>         0.5030
      7 C7          4.7790   61.4510   97.0320 C.3       1 <0>         0.5030
      8 C8          6.3010   63.1500   97.7370 C.3       1 <0>         0.5030
      9 C9          5.2930   71.5760   98.4880 C.2       1 <0>         0.6590
     10 C10         4.9010   72.9500   99.0970 C.3       1 <0>         0.0610
     11 C11         5.5730   74.0810   98.3170 C.3       1 <0>         0.0000
     12 C12         5.2060   75.4430   98.8990 C.3       1 <0>         0.0000
     13 C13         4.9780   76.3950   97.7340 C.3       1 <0>         0.0000
     14 C14         5.4220   77.8060   98.0770 C.3       1 <0>         0.0000
     15 C15         5.1620   78.6810   96.8520 C.3       1 <0>         0.0000
     16 C16         5.2840   80.1600   97.2070 C.3       1 <0>         0.0000
     17 C17         3.9450   80.8470   96.9480 C.3       1 <0>         0.0000
     18 C18         4.0400   81.6820   95.6780 C.3       1 <0>         0.0000
     19 C19         2.6350   82.1080   95.2540 C.3       1 <0>         0.0000
     20 C20         2.7370   83.0410   94.0400 C.3       1 <0>         0.0000
     21 C21         1.3570   83.1840   93.4120 C.3       1 <0>         0.0000
     22 C22         1.4280   84.1050   92.2090 C.3       1 <0>         0.0000
     23 C23         0.1790   83.9000   91.3680 C.3       1 <0>         0.0000
     24 C24         0.0810   71.9350   99.4270 C.2       1 <0>         0.6590
     25 C25         0.7650   72.9640  100.3370 C.3       1 <0>         0.0610
     26 C26         1.1130   74.2070   99.4990 C.3       1 <0>         0.0000
     27 C27         0.3040   75.4120   99.9760 C.3       1 <0>         0.0000
     28 C28         1.2090   76.6360  100.0200 C.3       1 <0>         0.0000
     29 C29         0.4110   77.8830   99.6650 C.3       1 <0>         0.0000
     30 C30         0.9910   79.0770  100.4240 C.3       1 <0>         0.0000
     31 C31         0.2070   80.3520  100.0880 C.3       1 <0>         0.0000
     32 C32        -0.9120   80.5670  101.1200 C.3       1 <0>         0.0000
     33 C33        -1.0890   82.0670  101.3830 C.3       1 <0>         0.0000
     34 N1          5.0880   62.8890   96.9290 N.4       1 <0>        -1.0120
     35 O1          0.6680   70.6340   99.0240 O.3       1 <0>        -0.4300
     36 O2          4.3090   70.4840   98.5940 O.3       1 <0>        -0.4300
     37 O3          6.3780   71.3880   97.9330 O.2       1 <0>        -0.5700
     38 O4         -1.0370   72.2180   98.9870 O.2       1 <0>        -0.5700
     39 O5          4.3820   67.0950   99.7700 O.2       1 <0>        -0.9500
     40 O6          2.6910   65.3330  100.1070 O.3       1 <0>        -0.9500
     41 O7          1.9310   67.5960   99.5070 O.3       1 <0>        -0.5512
     42 O8          3.1410   66.1750   97.8330 O.3       1 <0>        -0.5512
     43 P1          3.0410   66.5620   99.3000 P.3       1 <0>         1.4424
     44 H1          1.7257   68.8388   97.8998 H         1 <0>         0.0000
     45 H2          3.3728   68.8226   98.8483 H         1 <0>         0.0000
     46 H3          1.8435   69.9501  100.5214 H         1 <0>         0.0000
     47 H4          3.4113   71.1532  100.2926 H         1 <0>         0.0000
     48 H5          2.6999   71.6543   98.5828 H         1 <0>         0.0000
     49 H6          5.0366   65.4031   98.0030 H         1 <0>         0.0000
     50 H7          4.1905   65.4020   96.2969 H         1 <0>         0.0000
     51 H8          3.0334   63.4422   96.8366 H         1 <0>         0.0000
     52 H9          3.7723   63.4168   98.5052 H         1 <0>         0.0000
     53 H10         5.4372   64.3095   95.3894 H         1 <0>         0.0000
     54 H11         6.3192   62.7558   95.2043 H         1 <0>         0.0000
     55 H12         4.5548   62.8322   94.8747 H         1 <0>         0.0000
     56 H13         4.7020   61.0188   96.0234 H         1 <0>         0.0000
     57 H14         5.5804   60.9429   97.5883 H         1 <0>         0.0000
     58 H15         3.8238   61.3185   97.5612 H         1 <0>         0.0000
     59 H16         7.1767   63.2147   97.0744 H         1 <0>         0.0000
     60 H17         6.1820   64.0987   98.2808 H         1 <0>         0.0000
     61 H18         6.4455   62.3303   98.4562 H         1 <0>         0.0000
     62 H19         5.2282   72.9885  100.1465 H         1 <0>         0.0000
     63 H20         3.8092   73.0715   99.0396 H         1 <0>         0.0000
     64 H21         5.2401   74.0390   97.2694 H         1 <0>         0.0000
     65 H22         6.6635   73.9535   98.3846 H         1 <0>         0.0000
     66 H23         6.0222   75.8141   99.5363 H         1 <0>         0.0000
     67 H24         4.2993   75.3663   99.5171 H         1 <0>         0.0000
     68 H25         3.9051   76.4093   97.4917 H         1 <0>         0.0000
     69 H26         5.5706   76.0431   96.8767 H         1 <0>         0.0000
     70 H27         6.4929   77.8152   98.3282 H         1 <0>         0.0000
     71 H28         4.8658   78.1849   98.9471 H         1 <0>         0.0000
     72 H29         4.1458   78.4841   96.4797 H         1 <0>         0.0000
     73 H30         5.9084   78.4400   96.0808 H         1 <0>         0.0000
     74 H31         5.5530   80.2639   98.2685 H         1 <0>         0.0000
     75 H32         6.0657   80.6264   96.5894 H         1 <0>         0.0000
     76 H33         3.6972   81.4996   97.7982 H         1 <0>         0.0000
     77 H34         3.1596   80.0861   96.8286 H         1 <0>         0.0000
     78 H35         4.5020   81.0853   94.8777 H         1 <0>         0.0000
     79 H36         4.6567   82.5733   95.8658 H         1 <0>         0.0000
     80 H37         2.1435   82.6360   96.0845 H         1 <0>         0.0000
     81 H38         2.0431   81.2195   94.9891 H         1 <0>         0.0000
     82 H39         3.4365   82.6169   93.3046 H         1 <0>         0.0000
     83 H40         3.1062   84.0273   94.3577 H         1 <0>         0.0000
     84 H41         0.6624   83.6065   94.1529 H         1 <0>         0.0000
     85 H42         1.0024   82.1941   93.0891 H         1 <0>         0.0000
     86 H43         2.3214   83.8692   91.6121 H         1 <0>         0.0000
     87 H44         1.4899   85.1520   92.5406 H         1 <0>         0.0000
     88 H45        -0.7019   83.8505   92.0249 H         1 <0>         0.0000
     89 H46         0.0669   84.7405   90.6673 H         1 <0>         0.0000
     90 H47         0.2679   82.9604   90.8029 H         1 <0>         0.0000
     91 H48         0.0863   73.2456  101.1556 H         1 <0>         0.0000
     92 H49         1.6811   72.5335  100.7677 H         1 <0>         0.0000
     93 H50         0.8776   74.0086   98.4430 H         1 <0>         0.0000
     94 H51         2.1847   74.4273   99.6132 H         1 <0>         0.0000
     95 H52        -0.5293   75.5946   99.2816 H         1 <0>         0.0000
     96 H53        -0.0982   75.2132  100.9804 H         1 <0>         0.0000
     97 H54         2.0280   76.5096   99.2966 H         1 <0>         0.0000
     98 H55         1.6212   76.7458  101.0339 H         1 <0>         0.0000
     99 H56         0.4746   78.0669   98.5823 H         1 <0>         0.0000
    100 H57        -0.6435   77.7416   99.9444 H         1 <0>         0.0000
    101 H58         0.9243   78.8855  101.5052 H         1 <0>         0.0000
    102 H59         2.0417   79.2137  100.1285 H         1 <0>         0.0000
    103 H60         0.8896   81.2143  100.1066 H         1 <0>         0.0000
    104 H61        -0.2383   80.2498   99.0874 H         1 <0>         0.0000
    105 H62        -1.8529   80.1504  100.7313 H         1 <0>         0.0000
    106 H63        -0.6445   80.0608  102.0593 H         1 <0>         0.0000
    107 H64        -1.1314   82.2472  102.4673 H         1 <0>         0.0000
    108 H65        -0.2391   82.6173  100.9530 H         1 <0>         0.0000
    109 H66        -2.0236   82.4128  100.9173 H         1 <0>         0.0000
@<TRIPOS>BOND
     1   22   23 1
     2   21   22 1
     3   20   21 1
     4   19   20 1
     5   18   19 1
     6    6   34 1
     7   17   18 1
     8   15   16 1
     9   14   15 1
    10    7   34 1
    11    5   34 1
    12    8   34 1
    13   16   17 1
    14    4    5 1
    15    4   42 1
    16   13   14 1
    17   12   13 1
    18   42   43 1
    19    9   37 2
    20   11   12 1
    21   10   11 1
    22    9   36 1
    23    9   10 1
    24    3   36 1
    25    1    2 1
    26    1   41 1
    27   24   38 2
    28   24   35 1
    29    2   35 1
    30    2    3 1
    31   41   43 1
    32   39   43 2
    33   40   43 1
    34   24   25 1
    35   26   27 1
    36   25   26 1
    37   28   29 1
    38   29   30 1
    39   27   28 1
    40   30   31 1
    41   31   32 1
    42   32   33 1
    43    1   44 1
    44    1   45 1
    45    2   46 1
    46    3   47 1
    47    3   48 1
    48    4   49 1
    49    4   50 1
    50    5   51 1
    51    5   52 1
    52    6   53 1
    53    6   54 1
    54    6   55 1
    55    7   56 1
    56    7   57 1
    57    7   58 1
    58    8   59 1
    59    8   60 1
    60    8   61 1
    61   10   62 1
    62   10   63 1
    63   11   64 1
    64   11   65 1
    65   12   66 1
    66   12   67 1
    67   13   68 1
    68   13   69 1
    69   14   70 1
    70   14   71 1
    71   15   72 1
    72   15   73 1
    73   16   74 1
    74   16   75 1
    75   17   76 1
    76   17   77 1
    77   18   78 1
    78   18   79 1
    79   19   80 1
    80   19   81 1
    81   20   82 1
    82   20   83 1
    83   21   84 1
    84   21   85 1
    85   22   86 1
    86   22   87 1
    87   23   88 1
    88   23   89 1
    89   23   90 1
    90   25   91 1
    91   25   92 1
    92   26   93 1
    93   26   94 1
    94   27   95 1
    95   27   96 1
    96   28   97 1
    97   28   98 1
    98   29   99 1
    99   29  100 1
   100   30  101 1
   101   30  102 1
   102   31  103 1
   103   31  104 1
   104   32  105 1
   105   32  106 1
   106   33  107 1
   107   33  108 1
   108   33  109 1
