@<TRIPOS>MOLECULE
*****
   16    16     0     0     0
SMALL
USER_CHARGES

@<TRIPOS>ATOM
      1 C1        110.7110   47.2970   70.4650 C.ar      1 <0>        -0.1435
      2 C2        110.0750   48.3940   71.0580 C.ar      1 <0>        -0.1500
      3 C3        108.8780   48.8800   70.4930 C.ar      1 <0>        -0.1500
      4 C4        108.4000   48.2820   69.3380 C.ar      1 <0>         0.0825
      5 C5        109.0180   47.2030   68.7240 C.ar      1 <0>        -0.1500
      6 C6        110.1950   46.7160   69.3010 C.ar      1 <0>        -0.1500
      7 C7        111.9750   46.8180   71.0250 C.3       1 <0>         1.1635
      8 O1        107.2660   48.8270   68.8290 O.3       1 <0>        -0.5325
      9 F1        112.0040   45.8840   71.9250 F         1 <0>        -0.3400
     10 F2        112.6960   46.3320   69.9580 F         1 <0>        -0.3400
     11 F3        112.6620   47.8700   71.4310 F         1 <0>        -0.3400
     12 H1        110.4953   48.8616   71.9361 H         1 <0>         0.1500
     13 H2        108.3453   49.7005   70.9505 H         1 <0>         0.1500
     14 H3        108.6051   46.7549   67.8323 H         1 <0>         0.1500
     15 H4        110.7105   45.8841   68.8443 H         1 <0>         0.1500
     16 H5        106.6343   48.9543   69.5271 H         1 <0>         0.4500
@<TRIPOS>BOND
     1    1    2 ar
     2    1    6 ar
     3    1    7 1
     4    2    3 ar
     5    3    4 ar
     6    4    5 ar
     7    4    8 1
     8    5    6 ar
     9    7    9 1
    10    7   10 1
    11    7   11 1
    12    2   12 1
    13    3   13 1
    14    5   14 1
    15    6   15 1
    16    8   16 1
