@<TRIPOS>MOLECULE
*****
   26    27     0     0     0
SMALL
USER_CHARGES

@<TRIPOS>ATOM
      1 C1         26.8420   31.8300   24.7000 C.3       1 <0>         0.0322
      2 C2         26.3940   31.0370   23.4570 C.2       1 <0>        -0.2882
      3 C3         25.6220   31.6300   22.5190 C.2       1 <0>        -0.2882
      4 C4         24.9200   32.9720   22.7000 C.3       1 <0>         0.4182
      5 O1         23.5540   32.6930   22.9380 O.3       1 <0>        -0.6800
      6 C5         25.4150   33.7520   23.9120 C.3       1 <0>         0.2800
      7 C6         25.6740   32.7690   25.0910 C.3       1 <0>         0.0000
      8 O2         26.6180   34.4580   23.6380 O.3       1 <0>        -0.5600
      9 C7         27.9190   33.8600   23.5840 C.3       1 <0>         0.1740
     10 C8         28.0630   32.7350   24.6070 C.3       1 <0>         0.0000
     11 C9         27.3070   30.8880   25.8220 C.2       1 <0>         0.9060
     12 O3         27.0780   31.2330   26.9910 O.co2     1 <0>        -0.9000
     13 O4         27.9590   29.8660   25.5440 O.co2     1 <0>        -0.9000
     14 C10        28.2450   33.3500   22.1810 C.2       1 <0>         0.9060
     15 O5         28.9850   32.3650   21.9850 O.co2     1 <0>        -0.9000
     16 O6         27.6240   33.9060   21.2640 O.co2     1 <0>        -0.9000
     17 H1         26.7280   30.0090   23.3760 H         1 <0>         0.1500
     18 H2         25.5390   31.1850   21.5430 H         1 <0>         0.1500
     19 H3         25.0080   33.5780   21.7890 H         1 <0>         0.0000
     20 H4         23.3870   31.8530   22.4990 H         1 <0>         0.4000
     21 H5         24.6680   34.4980   24.1720 H         1 <0>         0.0000
     22 H6         25.8280   33.2800   26.0300 H         1 <0>         0.0000
     23 H7         24.7920   32.1810   25.3010 H         1 <0>         0.0000
     24 H8         28.6530   34.6390   23.7680 H         1 <0>         0.0000
     25 H9         28.9730   32.1730   24.4530 H         1 <0>         0.0000
     26 H10        28.3040   33.1760   25.5700 H         1 <0>         0.0000
@<TRIPOS>BOND
     1   14   16 2
     2    3   18 1
     3    4   19 1
     4   14   15 1
     5    9   14 1
     6    5   20 1
     7    3    4 1
     8    2    3 2
     9    4    5 1
    10    4    6 1
    11    2   17 1
    12    1    2 1
    13    8    9 1
    14    9   24 1
    15    9   10 1
    16    6    8 1
    17    6   21 1
    18    6    7 1
    19   10   25 1
    20    1   10 1
    21   10   26 1
    22    1    7 1
    23    1   11 1
    24    7   23 1
    25    7   22 1
    26   11   13 2
    27   11   12 1
