@<TRIPOS>MOLECULE
*****
   33    35     0     0     0
SMALL
USER_CHARGES

@<TRIPOS>ATOM
      1 C1         40.6790   22.6620   21.8370 C.ar      1 <0>        -0.1516
      2 N1         39.9280   22.8690   20.7290 N.pl3     1 <0>         0.0332
      3 C2         38.6530   22.4260   20.9470 C.2       1 <0>         0.1335
      4 N2         38.6030   21.9240   22.2360 N.2       1 <0>        -0.5653
      5 C3         39.8310   22.0570   22.8020 C.ar      1 <0>         0.2272
      6 C4         40.3600   21.7320   24.0480 C.ar      1 <0>        -0.1500
      7 C5         42.0330   22.9360   22.1260 C.ar      1 <0>         0.0862
      8 C6         37.5710   22.5070   19.8910 C.ar      1 <0>         0.0530
      9 C7         42.5490   22.5980   23.3900 C.ar      1 <0>        -0.1500
     10 C8         41.7080   22.0010   24.3360 C.ar      1 <0>        -0.1500
     11 C9         42.8860   23.5850   21.1520 C.2       1 <0>         0.5438
     12 N3         42.4080   23.9600   19.9530 N.am      1 <0>        -0.8000
     13 O1         44.0640   23.8070   21.4100 O.2       1 <0>        -0.5700
     14 C10        37.9370   22.5990   18.5340 C.ar      1 <0>        -0.1500
     15 C11        36.2060   22.5290   20.2400 C.ar      1 <0>        -0.1500
     16 C12        36.9460   22.7190   17.5480 C.ar      1 <0>         0.0825
     17 O2         37.2660   22.7800   16.1600 O.3       1 <0>        -0.3625
     18 C13        35.5880   22.7470   17.9180 C.ar      1 <0>        -0.1500
     19 C14        35.2060   22.6510   19.2600 C.ar      1 <0>        -0.1500
     20 C15        38.5440   22.3580   15.7040 C.3       1 <0>         0.2800
     21 H1         40.2563   23.2831   19.8801 H         1 <0>         0.2700
     22 H2         39.7315   21.2714   24.7958 H         1 <0>         0.1500
     23 H3         43.5834   22.7971   23.6281 H         1 <0>         0.1500
     24 H4         42.1035   21.7420   25.3070 H         1 <0>         0.1500
     25 H5         43.1124   24.3963   19.3931 H         1 <0>         0.3700
     26 H6         41.4632   23.8198   19.6569 H         1 <0>         0.3700
     27 H7         38.9795   22.5772   18.2527 H         1 <0>         0.1500
     28 H8         35.9231   22.4507   21.2793 H         1 <0>         0.1500
     29 H9         34.8303   22.8440   17.1546 H         1 <0>         0.1500
     30 H10        34.1625   22.6702   19.5379 H         1 <0>         0.1500
     31 H11        38.5258   22.2490   14.6096 H         1 <0>         0.0000
     32 H12        39.2991   23.1068   15.9852 H         1 <0>         0.0000
     33 H13        38.7965   21.3914   16.1643 H         1 <0>         0.0000
@<TRIPOS>BOND
     1   17   20 1
     2   16   17 1
     3   16   18 ar
     4   14   16 ar
     5   18   19 ar
     6    8   14 ar
     7   15   19 ar
     8    8   15 ar
     9    3    8 1
    10   11   12 am
    11    2    3 1
    12    1    2 1
    13    3    4 2
    14   11   13 2
    15    7   11 1
    16    1    7 ar
    17    1    5 ar
    18    7    9 ar
    19    4    5 1
    20    5    6 ar
    21    9   10 ar
    22    6   10 ar
    23    2   21 1
    24    6   22 1
    25    9   23 1
    26   10   24 1
    27   12   25 1
    28   12   26 1
    29   14   27 1
    30   15   28 1
    31   18   29 1
    32   19   30 1
    33   20   31 1
    34   20   32 1
    35   20   33 1
