@<TRIPOS>MOLECULE
*****
   73    78     0     0     0
SMALL
USER_CHARGES

@<TRIPOS>ATOM
      1 C1         15.2160   50.0440   23.5260 C.3       1 <0>         0.2800
      2 C2         15.2400   51.4000   22.8290 C.3       1 <0>         0.2800
      3 O1         14.1530   52.1730   23.4440 O.3       1 <0>        -0.5600
      4 C3         16.5490   52.2380   23.1060 C.3       1 <0>         0.2800
      5 O2         17.1900   52.7060   21.9000 O.3       1 <0>        -0.6800
      6 C4         16.0470   53.4040   24.0390 C.3       1 <0>         0.2800
      7 O3         16.8200   54.6110   23.9690 O.3       1 <0>        -0.6800
      8 C5         14.5720   53.5520   23.6060 C.3       1 <0>         0.5356
      9 N1         13.6980   54.1620   24.6100 N.pl3     1 <0>         0.0476
     10 C6         13.7420   53.9880   26.0040 C.2       1 <0>         0.0365
     11 N2         12.7270   54.5800   26.6250 N.2       1 <0>        -0.5653
     12 C7         11.9730   55.1820   25.5990 C.2       1 <0>         0.1412
     13 C8         10.7600   55.9590   25.6580 C.2       1 <0>         0.7160
     14 O4         10.0640   56.2600   26.6810 O.2       1 <0>        -0.5700
     15 N3         10.3330   56.4090   24.3960 N.am      1 <0>        -0.4900
     16 C9         10.9900   56.0780   23.2050 C.2       1 <0>         0.5600
     17 N4         10.4030   56.5380   22.0420 N.pl3     1 <0>        -0.8500
     18 N5         12.1140   55.3380   23.1180 N.2       1 <0>        -0.5760
     19 C10        12.5450   54.9510   24.3530 C.2       1 <0>        -0.0256
     20 P1         17.2770   48.2890   23.7860 P.3       1 <0>         1.4424
     21 O5         16.7650   48.1970   25.1870 O.3       1 <0>        -0.9500
     22 O6         16.3410   49.2870   22.9120 O.3       1 <0>        -0.5512
     23 O7         17.1310   46.8930   22.9750 O.3       1 <0>        -0.5424
     24 O8         16.4580   44.6210   22.1140 O.3       1 <0>        -0.5512
     25 P2         15.7970   46.0530   22.4970 P.3       1 <0>         1.4424
     26 O9         15.3550   46.6370   21.1610 O.2       1 <0>        -0.9500
     27 O10        14.8170   45.9540   23.6340 O.3       1 <0>        -0.9500
     28 O11        18.7130   48.6980   23.5570 O.2       1 <0>        -0.9500
     29 C11        16.9380   43.6790   23.1680 C.3       1 <0>         0.2800
     30 C12        16.6470   42.2550   22.6610 C.3       1 <0>         0.4182
     31 O12        17.9070   41.7570   22.0610 O.3       1 <0>        -0.5600
     32 C13        16.2480   41.2960   23.8400 C.2       1 <0>        -0.0372
     33 S1         15.0030   41.9010   24.9600 S.3       1 <0>        -0.2810
     34 C14        16.6920   40.0120   23.9290 C.2       1 <0>        -0.0372
     35 S2         16.0970   38.8980   25.1150 S.3       1 <0>        -0.2810
     36 C15        17.6500   39.4420   22.8450 C.3       1 <0>         0.5073
     37 N6         19.0080   39.1760   23.4780 N.pl3     1 <0>        -0.8691
     38 C16        19.8800   38.6300   22.4320 C.2       1 <0>         0.0744
     39 C17        20.8720   37.6730   22.7580 C.2       1 <0>         0.6156
     40 O13        20.9840   37.0400   23.8590 O.2       1 <0>        -0.5700
     41 N7         21.8020   37.3940   21.7190 N.am      1 <0>        -0.7301
     42 C18        21.7340   37.9800   20.4790 C.3       1 <0>         1.0491
     43 N8         22.6850   37.6510   19.5520 N.4       1 <0>        -0.8530
     44 N9         20.7870   38.8760   20.1390 N.2       1 <0>        -0.6960
     45 C19        19.8670   39.1820   21.1430 C.2       1 <0>         0.5400
     46 N10        18.8430   40.0320   20.7270 N.pl3     1 <0>        -0.8191
     47 C20        17.7280   40.3860   21.6270 C.3       1 <0>         0.6491
     48 H1         15.3572   50.1534   24.6114 H         1 <0>         0.0000
     49 H2         14.2518   49.5295   23.4005 H         1 <0>         0.0000
     50 H3         15.1644   51.2270   21.7453 H         1 <0>         0.0000
     51 H4         17.3411   51.6376   23.5771 H         1 <0>         0.0000
     52 H5         16.5400   52.8088   21.2148 H         1 <0>         0.4000
     53 H6         16.1606   53.1754   25.1090 H         1 <0>         0.0000
     54 H7         16.9908   54.9296   24.8475 H         1 <0>         0.4000
     55 H8         14.5003   54.2035   22.7226 H         1 <0>         0.0000
     56 H9         14.5158   53.4340   26.5146 H         1 <0>         0.1500
     57 H10         9.5224   56.9925   24.3471 H         1 <0>         0.3700
     58 H11         9.4196   56.6491   22.1857 H         1 <0>         0.4000
     59 H12        10.8048   57.4189   21.7918 H         1 <0>         0.4000
     60 H13        18.0168   43.8118   23.3370 H         1 <0>         0.0000
     61 H14        16.4281   43.8671   24.1243 H         1 <0>         0.0000
     62 H15        15.8128   42.2777   21.9443 H         1 <0>         0.0000
     63 H16        15.5191   42.0484   26.1440 H         1 <0>         0.1800
     64 H17        15.9480   37.7258   24.5731 H         1 <0>         0.1800
     65 H18        17.2617   38.4874   22.4604 H         1 <0>         0.0000
     66 H19        18.9166   38.5205   24.2276 H         1 <0>         0.4000
     67 H20        22.5384   36.7419   21.8994 H         1 <0>         0.3700
     68 H21        20.8102   38.0282   21.0742 H         1 <0>         0.0000
     69 H22        22.2590   37.5707   18.6508 H         1 <0>         0.4500
     70 H23        23.3862   38.3635   19.5268 H         1 <0>         0.4500
     71 H24        23.1048   36.7782   19.8009 H         1 <0>         0.4500
     72 H25        18.8644   40.4090   19.8011 H         1 <0>         0.4000
     73 H26        16.7804   40.2780   21.0789 H         1 <0>         0.0000
@<TRIPOS>BOND
     1   42   43 1
     2   42   44 1
     3   44   45 2
     4   41   42 1
     5   45   46 1
     6   46   47 1
     7   38   45 2
     8   25   26 2
     9   31   47 1
    10   36   47 1
    11   39   41 am
    12    4    5 1
    13   16   17 1
    14   30   31 1
    15   24   25 1
    16   24   29 1
    17   38   39 1
    18   37   38 1
    19   23   25 1
    20   25   27 1
    21   29   30 1
    22   30   32 1
    23   39   40 2
    24    2    4 1
    25    2    3 1
    26    1    2 1
    27   36   37 1
    28   34   36 1
    29    1   22 1
    30   20   22 1
    31   20   23 1
    32    4    6 1
    33   16   18 2
    34   18   19 1
    35   15   16 1
    36    3    8 1
    37   20   28 2
    38    6    8 1
    39    8    9 1
    40   20   21 1
    41   32   34 2
    42   32   33 1
    43   34   35 1
    44    6    7 1
    45    9   19 1
    46   12   19 2
    47   13   15 am
    48    9   10 1
    49   12   13 1
    50   11   12 1
    51   13   14 2
    52   10   11 2
    53    1   48 1
    54    1   49 1
    55    2   50 1
    56    4   51 1
    57    5   52 1
    58    6   53 1
    59    7   54 1
    60    8   55 1
    61   10   56 1
    62   15   57 1
    63   17   58 1
    64   17   59 1
    65   29   60 1
    66   29   61 1
    67   30   62 1
    68   33   63 1
    69   35   64 1
    70   36   65 1
    71   37   66 1
    72   41   67 1
    73   42   68 1
    74   43   69 1
    75   43   70 1
    76   43   71 1
    77   46   72 1
    78   47   73 1
