@<TRIPOS>MOLECULE
*****
   52    54     0     0     0
SMALL
USER_CHARGES

@<TRIPOS>ATOM
      1 C1         68.7110   44.9930  126.1990 C.3       1 <0>         0.0000
      2 N1         69.3550   46.5210  122.7680 N.4       1 <0>        -0.8530
      3 C2         69.1390   45.4830  123.7540 C.3       1 <0>         0.5640
      4 C3         68.6510   46.0620  125.0980 C.3       1 <0>         0.2800
      5 O1         69.4910   47.1540  125.4980 O.3       1 <0>        -0.6800
      6 C4         68.0810   44.5790  123.1970 C.2       1 <0>         0.7453
      7 O2         67.1540   45.0360  122.5400 O.2       1 <0>        -0.5700
      8 N2         68.2220   43.2970  123.4520 N.am      1 <0>        -0.7943
      9 S1         67.1590   42.2310  122.8980 S.o2      1 <0>         1.6217
     10 O3         66.9500   42.4290  121.4520 O.2       1 <0>        -0.6500
     11 O4         67.5890   40.8910  123.3770 O.2       1 <0>        -0.6500
     12 O5         65.7760   42.6160  123.6080 O.3       1 <0>        -0.4637
     13 C5         65.7080   42.7570  125.0320 C.3       1 <0>         0.2800
     14 C6         64.5540   41.9560  125.5990 C.3       1 <0>         0.2800
     15 O6         63.3200   42.3940  124.9730 O.3       1 <0>        -0.5600
     16 C7         64.5800   40.4670  125.3210 C.3       1 <0>         0.2800
     17 O7         65.4090   39.7920  126.2690 O.3       1 <0>        -0.6800
     18 C8         63.1140   40.0710  125.4680 C.3       1 <0>         0.2800
     19 O8         62.7340   39.7960  126.8030 O.3       1 <0>        -0.6800
     20 C9         62.3960   41.3160  124.9400 C.3       1 <0>         0.5356
     21 N3         61.9090   41.1460  123.5720 N.pl3     1 <0>         0.0476
     22 C10        62.6360   41.1420  122.4010 C.2       1 <0>         0.0365
     23 N4         61.9130   40.9270  121.3310 N.2       1 <0>        -0.5653
     24 C11        60.6190   40.7950  121.8260 C.ar      1 <0>         0.2272
     25 C12        59.3820   40.5440  121.1990 C.ar      1 <0>         0.4100
     26 N5         59.2370   40.3820  119.8820 N.pl3     1 <0>        -0.9000
     27 N6         58.2830   40.4690  121.9810 N.ar      1 <0>        -0.6200
     28 C13        58.4230   40.6190  123.2980 C.ar      1 <0>         0.4700
     29 N7         59.5240   40.8520  124.0070 N.ar      1 <0>        -0.5670
     30 C14        60.6000   40.9320  123.2020 C.ar      1 <0>         0.1054
     31 H1         68.7253   43.9935  125.7399 H         1 <0>         0.0000
     32 H2         69.6228   45.1344  126.7978 H         1 <0>         0.0000
     33 H3         67.8277   45.0855  126.8480 H         1 <0>         0.0000
     34 H4         69.4048   47.4095  123.2241 H         1 <0>         0.4500
     35 H5         70.2121   46.3469  122.2832 H         1 <0>         0.4500
     36 H6         68.5972   46.5235  122.1156 H         1 <0>         0.4500
     37 H7         70.0832   44.9539  123.9502 H         1 <0>         0.0000
     38 H8         67.6145   46.4037  124.9609 H         1 <0>         0.0000
     39 H9         69.6767   47.0874  126.4273 H         1 <0>         0.4000
     40 H10        68.9997   42.9833  123.9968 H         1 <0>         0.4200
     41 H11        66.6476   42.3933  125.4733 H         1 <0>         0.0000
     42 H12        65.5529   43.8187  125.2742 H         1 <0>         0.0000
     43 H13        64.6322   42.1230  126.6834 H         1 <0>         0.0000
     44 H14        64.9952   40.2052  124.3366 H         1 <0>         0.0000
     45 H15        66.2671   39.6422  125.8899 H         1 <0>         0.4000
     46 H16        62.8768   39.1386  124.9348 H         1 <0>         0.0000
     47 H17        63.5101   39.7344  127.3474 H         1 <0>         0.4000
     48 H18        61.5175   41.5063  125.5741 H         1 <0>         0.0000
     49 H19        63.7037   41.3015  122.3691 H         1 <0>         0.1500
     50 H20        59.2007   41.2771  119.4376 H         1 <0>         0.4000
     51 H21        60.0125   39.8628  119.5228 H         1 <0>         0.4000
     52 H22        57.5115   40.5400  123.8719 H         1 <0>         0.1500
@<TRIPOS>BOND
     1   25   26 1
     2   24   25 ar
     3   25   27 ar
     4   23   24 1
     5   22   23 2
     6    9   10 2
     7   24   30 ar
     8   27   28 ar
     9   21   22 1
    10    6    7 2
    11    2    3 1
    12    9   11 2
    13    8    9 1
    14    9   12 1
    15    6    8 am
    16    3    6 1
    17   21   30 1
    18   29   30 ar
    19   28   29 ar
    20   20   21 1
    21   12   13 1
    22    3    4 1
    23   15   20 1
    24   18   20 1
    25   14   15 1
    26   13   14 1
    27    4    5 1
    28    1    4 1
    29   16   18 1
    30   14   16 1
    31   16   17 1
    32   18   19 1
    33    1   31 1
    34    1   32 1
    35    1   33 1
    36    2   34 1
    37    2   35 1
    38    2   36 1
    39    3   37 1
    40    4   38 1
    41    5   39 1
    42    8   40 1
    43   13   41 1
    44   13   42 1
    45   14   43 1
    46   16   44 1
    47   17   45 1
    48   18   46 1
    49   19   47 1
    50   20   48 1
    51   22   49 1
    52   26   50 1
    53   26   51 1
    54   28   52 1
