@<TRIPOS>MOLECULE
*****
   34    36     0     0     0
SMALL
USER_CHARGES

@<TRIPOS>ATOM
      1 C1         26.9340   18.8600   35.8070 C.ar      1 <0>         0.0825
      2 C2         25.6030   18.8720   36.0770 C.ar      1 <0>        -0.1500
      3 C3         24.6400   19.8290   35.3820 C.ar      1 <0>         0.0825
      4 C4         25.1660   20.6810   34.4540 C.ar      1 <0>        -0.1435
      5 C5         26.6860   20.7010   34.1140 C.ar      1 <0>         0.0825
      6 C6         27.4870   19.8260   34.7710 C.ar      1 <0>        -0.1500
      7 C7         24.2640   21.6920   33.6830 C.3       1 <0>         0.4235
      8 C8         25.0450   22.6680   32.8190 C.3       1 <0>         0.0000
      9 C9         26.2890   22.0400   32.2240 C.3       1 <0>         0.4235
     10 O1         27.1850   21.5640   33.1860 O.3       1 <0>        -0.3625
     11 O2         23.0580   21.7040   33.7500 O.3       1 <0>        -0.6800
     12 C10        26.9710   23.0310   31.3180 C.ar      1 <0>        -0.1435
     13 C11        27.1220   24.3420   31.6870 C.ar      1 <0>        -0.1500
     14 C12        27.8160   25.3220   30.7580 C.ar      1 <0>        -0.1500
     15 C13        28.3010   24.9220   29.5550 C.ar      1 <0>         0.0825
     16 C14        28.1340   23.4660   29.1450 C.ar      1 <0>        -0.1500
     17 C15        27.5160   22.5790   29.9640 C.ar      1 <0>        -0.1500
     18 O3         23.3090   19.8170   35.6730 O.3       1 <0>        -0.5325
     19 O4         27.7480   17.9970   36.4440 O.3       1 <0>        -0.5325
     20 O5         28.9150   25.8000   28.7430 O.3       1 <0>        -0.5325
     21 H1         25.2131   18.1802   36.8089 H         1 <0>         0.1500
     22 H2         28.5447   19.8149   34.5529 H         1 <0>         0.1500
     23 H3         23.1855   21.6497   33.8953 H         1 <0>         0.0000
     24 H4         25.3481   23.5221   33.4424 H         1 <0>         0.0000
     25 H5         24.3941   22.9812   31.9893 H         1 <0>         0.0000
     26 H6         25.9617   21.1613   31.6489 H         1 <0>         0.0000
     27 H7         22.7911   21.7072   34.6617 H         1 <0>         0.4000
     28 H8         26.7462   24.6792   32.6417 H         1 <0>         0.1500
     29 H9         27.9255   26.3534   31.0590 H         1 <0>         0.1500
     30 H10        28.5126   23.1347   28.1893 H         1 <0>         0.1500
     31 H11        27.4087   21.5489   29.6578 H         1 <0>         0.1500
     32 H12        23.1905   19.8142   36.6156 H         1 <0>         0.4500
     33 H13        27.9397   17.2619   35.8735 H         1 <0>         0.4500
     34 H14        29.0598   26.6151   29.2089 H         1 <0>         0.4500
@<TRIPOS>BOND
     1   15   20 1
     2   15   16 ar
     3   16   17 ar
     4   14   15 ar
     5   12   17 ar
     6   13   14 ar
     7   12   13 ar
     8    9   12 1
     9    8    9 1
    10    9   10 1
    11    7    8 1
    12    5   10 1
    13    7   11 1
    14    4    7 1
    15    4    5 ar
    16    5    6 ar
    17    3    4 ar
    18    1    6 ar
    19    3   18 1
    20    2    3 ar
    21    1    2 ar
    22    1   19 1
    23    2   21 1
    24    6   22 1
    25    7   23 1
    26    8   24 1
    27    8   25 1
    28    9   26 1
    29   11   27 1
    30   13   28 1
    31   14   29 1
    32   16   30 1
    33   17   31 1
    34   18   32 1
    35   19   33 1
    36   20   34 1
