@<TRIPOS>MOLECULE
*****
   65    69     0     0     0
SMALL
USER_CHARGES

@<TRIPOS>ATOM
      1 P1        -12.2110   16.5500   29.6130 P.3       1 <0>         1.4424
      2 O1        -12.0560   17.6450   28.6590 O.2       1 <0>        -0.9500
      3 O2        -11.0200   15.7150   29.9290 O.3       1 <0>        -0.9500
      4 O3        -14.5300   11.8980   30.8530 O.3       1 <0>        -0.6800
      5 C1        -13.1640   12.2360   30.6370 C.3       1 <0>         0.2800
      6 C2        -12.9530   13.2620   29.5020 C.3       1 <0>         0.2800
      7 O4        -13.2230   12.8000   28.1550 O.3       1 <0>        -0.5600
      8 C3        -13.9230   14.4450   29.6680 C.3       1 <0>         0.2800
      9 O5        -13.4340   15.6510   29.0460 O.3       1 <0>        -0.5512
     10 C4        -15.0950   14.0860   28.7700 C.3       1 <0>         0.2800
     11 O6        -16.0290   15.1300   28.3510 O.3       1 <0>        -0.6800
     12 C5        -14.3430   13.4940   27.5960 C.3       1 <0>         0.5356
     13 N1        -15.0370   12.4850   26.7920 N.pl3     1 <0>         0.0476
     14 C6        -15.2230   12.5240   25.4300 C.2       1 <0>         0.0365
     15 N2        -15.8460   11.4900   24.9630 N.2       1 <0>        -0.5653
     16 C7        -16.0870   10.6760   26.0490 C.ar      1 <0>         0.2272
     17 C8        -16.6670    9.4270   26.1480 C.ar      1 <0>         0.4100
     18 N3        -17.2170    8.8160   25.0900 N.pl3     1 <0>        -0.9000
     19 N4        -16.8130    8.8800   27.3840 N.ar      1 <0>        -0.6200
     20 C9        -16.2890    9.5420   28.4290 C.ar      1 <0>         0.4700
     21 N5        -15.6770   10.7330   28.4440 N.ar      1 <0>        -0.5670
     22 C10       -15.5920   11.2500   27.1820 C.ar      1 <0>         0.1054
     23 N6        -15.7620   17.2130   33.9530 N.am      1 <0>        -0.4691
     24 C11       -16.6490   17.2300   34.9710 C.2       1 <0>         0.6900
     25 O7        -16.2280   17.2130   36.1500 O.2       1 <0>        -0.5700
     26 N7        -17.9840   17.3650   34.7100 N.am      1 <0>        -0.4900
     27 C12       -18.5180   17.3720   33.4020 C.2       1 <0>         0.6156
     28 O8        -19.7180   17.5830   33.2740 O.2       1 <0>        -0.5700
     29 C13       -17.5140   17.4360   32.3820 C.2       1 <0>        -0.1356
     30 C14       -16.2210   17.2860   32.6720 C.2       1 <0>        -0.0410
     31 C15       -14.3140   17.1070   34.2600 C.3       1 <0>         0.5801
     32 C16       -13.6740   15.8790   33.7360 C.3       1 <0>         0.2800
     33 O9        -13.8190   14.7480   34.6580 O.3       1 <0>        -0.6800
     34 C17       -12.2130   16.2970   33.5500 C.3       1 <0>         0.2800
     35 O10       -11.4890   16.1940   34.7790 O.3       1 <0>        -0.5512
     36 C18       -12.3440   17.7990   33.2470 C.3       1 <0>         0.2800
     37 O11       -13.6940   18.1350   33.4920 O.3       1 <0>        -0.5600
     38 O12       -12.8360   17.1650   30.9980 O.3       1 <0>        -0.5512
     39 C19       -12.0590   18.1000   31.7810 C.3       1 <0>         0.2800
     40 P2         -9.8870   15.9120   34.7800 P.3       1 <0>         1.3712
     41 O13        -9.4280   16.3400   36.1150 O.3       1 <0>        -1.0333
     42 O14        -9.3980   16.9250   33.7090 O.2       1 <0>        -1.0333
     43 O15        -9.5740   14.5290   34.3390 O.3       1 <0>        -1.0333
     44 H1        -14.6944   11.8227   31.7856 H         1 <0>         0.4000
     45 H2        -12.6218   11.3163   30.3719 H         1 <0>         0.0000
     46 H3        -12.7927   12.6965   31.5644 H         1 <0>         0.0000
     47 H4        -11.8840   13.5023   29.5991 H         1 <0>         0.0000
     48 H5        -14.1109   14.6052   30.7399 H         1 <0>         0.0000
     49 H6        -15.8124   13.4479   29.3068 H         1 <0>         0.0000
     50 H7        -16.2316   15.6900   29.0912 H         1 <0>         0.4000
     51 H8        -14.1394   14.3431   26.9269 H         1 <0>         0.0000
     52 H9        -14.8819   13.3394   24.8094 H         1 <0>         0.1500
     53 H10       -17.3540    9.4801   24.3550 H         1 <0>         0.4000
     54 H11       -16.6092    8.0882   24.7724 H         1 <0>         0.4000
     55 H12       -16.3725    9.0472   29.3854 H         1 <0>         0.1500
     56 H13       -18.6125   17.4635   35.4815 H         1 <0>         0.3700
     57 H14       -17.8101   17.6092   31.3579 H         1 <0>         0.1500
     58 H15       -15.5108   17.2199   31.8610 H         1 <0>         0.1500
     59 H16       -14.2061   17.1434   35.3541 H         1 <0>         0.0000
     60 H17       -14.1326   15.5201   32.8028 H         1 <0>         0.0000
     61 H18       -13.8504   13.9376   34.1633 H         1 <0>         0.4000
     62 H19       -11.6981   15.6871   32.7931 H         1 <0>         0.0000
     63 H20       -11.6305   18.3640   33.8648 H         1 <0>         0.0000
     64 H21       -10.9868   17.9776   31.5678 H         1 <0>         0.0000
     65 H22       -12.3307   19.1371   31.5346 H         1 <0>         0.0000
@<TRIPOS>BOND
     1   14   15 2
     2   15   16 1
     3   17   18 1
     4   13   14 1
     5   16   17 ar
     6   16   22 ar
     7   17   19 ar
     8   13   22 1
     9   12   13 1
    10   21   22 ar
    11   19   20 ar
    12    7   12 1
    13   10   12 1
    14    6    7 1
    15   10   11 1
    16   20   21 ar
    17    1    2 2
    18    8   10 1
    19    1    9 1
    20    8    9 1
    21    6    8 1
    22    5    6 1
    23    1    3 1
    24    1   38 1
    25    4    5 1
    26   38   39 1
    27   36   39 1
    28   29   30 2
    29   27   29 1
    30   23   30 1
    31   36   37 1
    32   34   36 1
    33   27   28 2
    34   26   27 am
    35   31   37 1
    36   32   34 1
    37   34   35 1
    38   40   42 2
    39   31   32 1
    40   32   33 1
    41   23   31 1
    42   23   24 am
    43   40   43 1
    44   24   26 am
    45   35   40 1
    46   40   41 1
    47   24   25 2
    48    4   44 1
    49    5   45 1
    50    5   46 1
    51    6   47 1
    52    8   48 1
    53   10   49 1
    54   11   50 1
    55   12   51 1
    56   14   52 1
    57   18   53 1
    58   18   54 1
    59   20   55 1
    60   26   56 1
    61   29   57 1
    62   30   58 1
    63   31   59 1
    64   32   60 1
    65   33   61 1
    66   34   62 1
    67   36   63 1
    68   39   64 1
    69   39   65 1
