@<TRIPOS>MOLECULE
*****
   73    77     0     0     0
SMALL
USER_CHARGES

@<TRIPOS>ATOM
      1 P1         14.6550   -2.0530   78.6100 P.3       1 <0>         1.4424
      2 O1         14.5660   -0.6350   78.9880 O.3       1 <0>        -0.9500
      3 O2         16.0450   -2.3580   78.2800 O.2       1 <0>        -0.9500
      4 O3         14.2990   -2.8470   79.7730 O.3       1 <0>        -0.5512
      5 C1         13.0960   -2.6240   80.5960 C.3       1 <0>         0.2800
      6 C2         12.9870   -3.5720   81.7890 C.3       1 <0>         0.2800
      7 O4         12.7950   -4.9330   81.2990 O.3       1 <0>        -0.5600
      8 C3         14.3130   -3.6380   82.5670 C.3       1 <0>         0.2800
      9 O5         14.0630   -3.5260   84.0040 O.3       1 <0>        -0.6800
     10 C4         14.9200   -4.9850   82.1590 C.3       1 <0>         0.2800
     11 O6         15.9340   -5.5380   83.1440 O.3       1 <0>        -0.5512
     12 C5         13.6570   -5.8440   82.0230 C.3       1 <0>         0.5356
     13 N1         13.8600   -7.1290   81.3110 N.pl3     1 <0>         0.0476
     14 C6         14.8860   -7.5560   80.5140 C.2       1 <0>         0.0365
     15 N2         14.6920   -8.8040   80.0620 N.2       1 <0>        -0.5653
     16 C7         13.4920   -9.1810   80.5960 C.ar      1 <0>         0.2272
     17 C8         12.6760  -10.3970   80.5330 C.ar      1 <0>         0.4100
     18 N3         13.0830  -11.4850   79.8170 N.pl3     1 <0>        -0.9000
     19 N4         11.4430  -10.4280   81.2380 N.ar      1 <0>        -0.6200
     20 C9         11.0290   -9.3100   81.9700 C.ar      1 <0>         0.4700
     21 N5         11.7270   -8.1220   82.0940 N.ar      1 <0>        -0.5670
     22 C10        12.9570   -8.1380   81.3730 C.ar      1 <0>         0.1054
     23 O7         13.7080   -2.3540   77.4890 O.3       1 <0>        -0.5424
     24 P2         13.0410   -1.6030   76.3600 P.3       1 <0>         1.4424
     25 O8         12.5710   -0.2680   76.7570 O.3       1 <0>        -0.9500
     26 O9         11.9920   -2.4140   75.7340 O.2       1 <0>        -0.9500
     27 O10        14.0470   -1.3820   75.3000 O.3       1 <0>        -0.5512
     28 C11        15.0680   -0.3380   75.3470 C.3       1 <0>         0.2800
     29 C12        16.1820   -0.4490   74.3110 C.3       1 <0>         0.2800
     30 O11        17.0090   -1.5940   74.6810 O.3       1 <0>        -0.5600
     31 C13        15.7560   -0.6780   72.8540 C.3       1 <0>         0.2800
     32 O12        16.5120    0.1240   72.0370 O.3       1 <0>        -0.6800
     33 C14        15.8690   -2.1870   72.5930 C.3       1 <0>         0.2800
     34 O13        16.0010   -2.5740   71.2900 O.3       1 <0>        -0.6800
     35 C15        16.9770   -2.5500   73.5660 C.3       1 <0>         0.7680
     36 N6         16.8180   -3.9340   74.0690 N.ar      1 <0>        -0.2100
     37 C16        15.8680   -4.1330   75.1940 C.ar      1 <0>         0.2110
     38 C17        15.6910   -5.5830   75.7200 C.ar      1 <0>         0.0862
     39 C18        14.7240   -5.6140   76.8620 C.2       1 <0>         0.5438
     40 O14        13.7110   -6.3320   76.8800 O.2       1 <0>        -0.5700
     41 N7         15.0290   -4.8450   77.9250 N.am      1 <0>        -0.8000
     42 C19        16.4660   -6.7230   75.0780 C.ar      1 <0>        -0.1500
     43 C20        17.4510   -6.4980   73.9080 C.ar      1 <0>        -0.1500
     44 C21        17.5590   -5.0360   73.4700 C.ar      1 <0>         0.2110
     45 P3         17.3890   -5.7130   83.1340 P.3       1 <0>         1.3712
     46 O15        17.6630   -7.1280   83.2740 O.3       1 <0>        -1.0333
     47 O16        18.0140   -5.0120   84.2460 O.3       1 <0>        -1.0333
     48 O17        17.9290   -5.2250   81.8800 O.2       1 <0>        -1.0333
     49 H1         13.1302   -1.5937   80.9798 H         1 <0>         0.0000
     50 H2         12.2232   -2.8095   79.9527 H         1 <0>         0.0000
     51 H3         12.1620   -3.2065   82.4181 H         1 <0>         0.0000
     52 H4         15.0042   -2.8134   82.3384 H         1 <0>         0.0000
     53 H5         14.8911   -3.5017   84.4690 H         1 <0>         0.4000
     54 H6         15.5301   -4.9345   81.2451 H         1 <0>         0.0000
     55 H7         13.2615   -6.1935   82.9881 H         1 <0>         0.0000
     56 H8         15.7528   -6.9573   80.2759 H         1 <0>         0.1500
     57 H9         13.1826  -11.2330   78.8544 H         1 <0>         0.4000
     58 H10        13.9618  -11.8064   80.1699 H         1 <0>         0.4000
     59 H11        10.0814   -9.3805   82.4833 H         1 <0>         0.1500
     60 H12        15.5377   -0.3820   76.3407 H         1 <0>         0.0000
     61 H13        14.5455    0.6049   75.1282 H         1 <0>         0.0000
     62 H14        16.6840    0.5296   74.3297 H         1 <0>         0.0000
     63 H15        14.7155   -0.3908   72.6422 H         1 <0>         0.0000
     64 H16        16.6867    0.9484   72.4755 H         1 <0>         0.4000
     65 H17        14.9427   -2.7534   72.7695 H         1 <0>         0.0000
     66 H18        16.0317   -1.8054   70.7325 H         1 <0>         0.4000
     67 H19        17.9350   -2.4975   73.0279 H         1 <0>         0.0000
     68 H20        15.3248   -3.3058   75.6266 H         1 <0>         0.1500
     69 H21        15.8800   -4.3458   77.7618 H         1 <0>         0.3700
     70 H22        14.4817   -4.7821   78.7596 H         1 <0>         0.3700
     71 H23        16.3232   -7.7257   75.4529 H         1 <0>         0.1500
     72 H24        18.0099   -7.2971   73.4438 H         1 <0>         0.1500
     73 H25        18.2330   -4.8043   72.6585 H         1 <0>         0.1500
@<TRIPOS>BOND
     1   33   34 1
     2   31   32 1
     3   31   33 1
     4   33   35 1
     5   29   31 1
     6   43   44 ar
     7   36   44 ar
     8   35   36 1
     9   30   35 1
    10   42   43 ar
    11   36   37 ar
    12   29   30 1
    13   28   29 1
    14   38   42 ar
    15   37   38 ar
    16   27   28 1
    17   24   27 1
    18   38   39 1
    19   24   26 2
    20   24   25 1
    21   23   24 1
    22   39   40 2
    23   39   41 am
    24    1   23 1
    25    1    3 2
    26    1    2 1
    27    1    4 1
    28    4    5 1
    29   17   18 1
    30   14   15 2
    31   15   16 1
    32   13   14 1
    33   16   17 ar
    34   17   19 ar
    35   16   22 ar
    36    5    6 1
    37   19   20 ar
    38    6    7 1
    39    7   12 1
    40   13   22 1
    41   12   13 1
    42   21   22 ar
    43    6    8 1
    44   45   48 2
    45   20   21 ar
    46   10   12 1
    47    8   10 1
    48   10   11 1
    49    8    9 1
    50   11   45 1
    51   45   46 1
    52   45   47 1
    53    5   49 1
    54    5   50 1
    55    6   51 1
    56    8   52 1
    57    9   53 1
    58   10   54 1
    59   12   55 1
    60   14   56 1
    61   18   57 1
    62   18   58 1
    63   20   59 1
    64   28   60 1
    65   28   61 1
    66   29   62 1
    67   31   63 1
    68   32   64 1
    69   33   65 1
    70   34   66 1
    71   35   67 1
    72   37   68 1
    73   41   69 1
    74   41   70 1
    75   42   71 1
    76   43   72 1
    77   44   73 1
