@<TRIPOS>MOLECULE
*****
   46    48     0     0     0
SMALL
USER_CHARGES

@<TRIPOS>ATOM
      1 N1         62.9170   49.3240  220.5570 N.4       1 <0>        -0.8530
      2 C1         63.3820   50.4310  221.3750 C.3       1 <0>         0.3970
      3 C2         64.8320   50.7690  221.0100 C.3       1 <0>         0.0000
      4 C3         65.0760   51.0450  219.5210 C.3       1 <0>         0.2300
      5 S1         66.7290   51.8050  219.3570 S.3       1 <0>        -0.4600
      6 C4         62.4930   51.6540  221.1820 C.2       1 <0>         0.9060
      7 O1         61.5850   51.6300  220.2430 O.co2     1 <0>        -0.9000
      8 O2         62.3590   52.4840  222.1760 O.co2     1 <0>        -0.9000
      9 C5         67.7880   50.6410  218.4550 C.3       1 <0>         0.2300
     10 C6         68.1270   49.5530  219.4400 C.3       1 <0>         0.2800
     11 O3         68.4620   48.3410  218.7090 O.3       1 <0>        -0.5600
     12 C7         69.2920   49.8210  220.3960 C.3       1 <0>         0.2800
     13 O4         68.9830   49.3310  221.7040 O.3       1 <0>        -0.6800
     14 C8         70.4380   49.0230  219.7690 C.3       1 <0>         0.2800
     15 O5         71.4120   48.5920  220.7150 O.3       1 <0>        -0.6800
     16 C9         69.6900   47.8330  219.1730 C.3       1 <0>         0.5356
     17 N2         70.3660   47.1730  218.0600 N.pl3     1 <0>         0.0476
     18 C10        70.9620   47.7380  216.9550 C.2       1 <0>         0.0365
     19 N3         71.5280   46.8640  216.1560 N.2       1 <0>        -0.5653
     20 C11        71.2820   45.6420  216.7700 C.ar      1 <0>         0.2272
     21 C12        71.6440   44.3220  216.4330 C.ar      1 <0>         0.4100
     22 N4         72.3710   44.0030  215.3650 N.pl3     1 <0>        -0.9000
     23 N5         71.2310   43.3280  217.2510 N.ar      1 <0>        -0.6200
     24 C13        70.5210   43.6510  218.3390 C.ar      1 <0>         0.4700
     25 N6         70.1350   44.8520  218.7710 N.ar      1 <0>        -0.5670
     26 C14        70.5550   45.8160  217.9330 C.ar      1 <0>         0.1054
     27 H1         62.8102   49.6299  219.6109 H         1 <0>         0.4500
     28 H2         63.5840   48.5798  220.5933 H         1 <0>         0.4500
     29 H3         62.0367   49.0004  220.9039 H         1 <0>         0.4500
     30 H4         63.3335   50.1335  222.4329 H         1 <0>         0.0000
     31 H5         65.4579   49.9115  221.2980 H         1 <0>         0.0000
     32 H6         65.0789   51.6987  221.5436 H         1 <0>         0.0000
     33 H7         64.3067   51.7292  219.1337 H         1 <0>         0.0000
     34 H8         65.0254   50.1095  218.9445 H         1 <0>         0.0000
     35 H9         67.2592   50.2273  217.5837 H         1 <0>         0.0000
     36 H10        68.6926   51.1330  218.0681 H         1 <0>         0.0000
     37 H11        67.2255   49.4776  220.0658 H         1 <0>         0.0000
     38 H12        69.5268   50.8886  220.5191 H         1 <0>         0.0000
     39 H13        68.9145   48.3838  221.6798 H         1 <0>         0.4000
     40 H14        71.0229   49.6140  219.0488 H         1 <0>         0.0000
     41 H15        72.2527   48.4961  220.2832 H         1 <0>         0.4000
     42 H16        69.6001   47.0653  219.9556 H         1 <0>         0.0000
     43 H17        70.9636   48.8009  216.7636 H         1 <0>         0.1500
     44 H18        71.7741   43.9230  214.5667 H         1 <0>         0.4000
     45 H19        73.0529   44.7159  215.2011 H         1 <0>         0.4000
     46 H20        70.2169   42.8185  218.9561 H         1 <0>         0.1500
@<TRIPOS>BOND
     1   21   22 1
     2   19   20 1
     3   18   19 2
     4   20   21 ar
     5   21   23 ar
     6   20   26 ar
     7   17   18 1
     8   23   24 ar
     9   17   26 1
    10   25   26 ar
    11   16   17 1
    12   24   25 ar
    13    5    9 1
    14    9   10 1
    15   11   16 1
    16   10   11 1
    17   14   16 1
    18    4    5 1
    19   10   12 1
    20    3    4 1
    21   12   14 1
    22   14   15 1
    23    6    7 2
    24   12   13 1
    25    1    2 1
    26    2    3 1
    27    2    6 1
    28    6    8 1
    29    1   27 1
    30    1   28 1
    31    1   29 1
    32    2   30 1
    33    3   31 1
    34    3   32 1
    35    4   33 1
    36    4   34 1
    37    9   35 1
    38    9   36 1
    39   10   37 1
    40   12   38 1
    41   13   39 1
    42   14   40 1
    43   15   41 1
    44   16   42 1
    45   18   43 1
    46   22   44 1
    47   22   45 1
    48   24   46 1
