@<TRIPOS>MOLECULE
*****
   45    47     0     0     0
SMALL
USER_CHARGES

@<TRIPOS>ATOM
      1 P1         77.8270   -8.2630   29.3080 P.3       1 <0>         1.4380
      2 O1         78.9260   -7.4290   29.7670 O.3       1 <0>        -1.0333
      3 O2         78.0130   -8.5810   27.9250 O.2       1 <0>        -1.0333
      4 O3         76.5890   -7.3590   29.3360 O.3       1 <0>        -1.0333
      5 N1         77.5730   -9.5690   30.2630 N.pl3     1 <0>        -1.0960
      6 P2         76.2780  -10.5620   30.0830 P.3       1 <0>         1.5092
      7 O4         75.0780  -10.1360   30.8170 O.3       1 <0>        -0.9500
      8 O5         75.9970  -10.9370   28.7250 O.2       1 <0>        -0.9500
      9 O6         76.7230  -11.9410   30.7830 O.3       1 <0>        -0.5424
     10 P3         77.2030  -13.3130   30.0540 P.3       1 <0>         1.4424
     11 O7         76.0270  -13.9610   29.4060 O.3       1 <0>        -0.9500
     12 O8         78.3870  -13.0390   29.2050 O.2       1 <0>        -0.9500
     13 O9         77.6450  -14.1780   31.3280 O.3       1 <0>        -0.5512
     14 C1         78.6900  -13.7000   32.2100 C.3       1 <0>         0.2800
     15 C2         79.0290  -14.7910   33.2490 C.3       1 <0>         0.2800
     16 O10        77.8800  -15.0540   34.0730 O.3       1 <0>        -0.5600
     17 C3         79.4520  -16.1400   32.6280 C.3       1 <0>         0.2800
     18 O11        80.4680  -16.7540   33.4350 O.3       1 <0>        -0.6800
     19 C4         78.1340  -16.9460   32.7030 C.3       1 <0>         0.2800
     20 O12        78.3830  -18.3620   32.7760 O.3       1 <0>        -0.6800
     21 C5         77.5670  -16.4530   34.0300 C.3       1 <0>         0.5356
     22 N2         76.0950  -16.6400   34.1230 N.pl3     1 <0>         0.0476
     23 C6         75.1500  -16.9410   33.1400 C.2       1 <0>         0.0365
     24 N3         73.9370  -17.0410   33.5680 N.2       1 <0>        -0.5653
     25 C7         74.0490  -16.7780   34.9440 C.2       1 <0>         0.1412
     26 C8         73.0480  -16.7530   36.0050 C.2       1 <0>         0.7160
     27 O13        71.8340  -16.9650   35.9200 O.2       1 <0>        -0.5700
     28 N4         73.5990  -16.4450   37.2590 N.am      1 <0>        -0.4900
     29 C9         74.9210  -16.1310   37.4990 C.2       1 <0>         0.5600
     30 N5         75.3010  -15.7710   38.7400 N.pl3     1 <0>        -0.8500
     31 N6         75.8700  -16.1710   36.5040 N.2       1 <0>        -0.5760
     32 C10        75.3710  -16.5070   35.2750 C.2       1 <0>        -0.0256
     33 H1         78.3735  -10.1531   30.1287 H         1 <0>         0.4200
     34 H2         79.5880  -13.4648   31.6198 H         1 <0>         0.0000
     35 H3         78.3439  -12.7946   32.7301 H         1 <0>         0.0000
     36 H4         79.8788  -14.3915   33.8220 H         1 <0>         0.0000
     37 H5         79.8709  -16.0647   31.6137 H         1 <0>         0.0000
     38 H6         81.2494  -16.8896   32.9121 H         1 <0>         0.4000
     39 H7         77.4800  -16.8066   31.8296 H         1 <0>         0.0000
     40 H8         78.4379  -18.7200   31.8978 H         1 <0>         0.4000
     41 H9         77.9981  -17.0203   34.8681 H         1 <0>         0.0000
     42 H10        75.4140  -17.0794   32.1020 H         1 <0>         0.1500
     43 H11        72.9809  -16.4539   38.0450 H         1 <0>         0.3700
     44 H12        76.2965  -15.6818   38.7716 H         1 <0>         0.4000
     45 H13        74.8803  -14.8951   38.9763 H         1 <0>         0.4000
@<TRIPOS>BOND
     1    1    3 2
     2    6    8 2
     3   10   12 2
     4    1    4 1
     5    1    2 1
     6    1    5 1
     7   10   11 1
     8    9   10 1
     9   10   13 1
    10    5    6 1
    11    6    9 1
    12    6    7 1
    13   13   14 1
    14   14   15 1
    15   17   19 1
    16   15   17 1
    17   17   18 1
    18   19   20 1
    19   19   21 1
    20   23   24 2
    21   22   23 1
    22   15   16 1
    23   24   25 1
    24   16   21 1
    25   21   22 1
    26   22   32 1
    27   25   32 2
    28   25   26 1
    29   31   32 1
    30   26   27 2
    31   26   28 am
    32   29   31 2
    33   28   29 1
    34   29   30 1
    35    5   33 1
    36   14   34 1
    37   14   35 1
    38   15   36 1
    39   17   37 1
    40   18   38 1
    41   19   39 1
    42   20   40 1
    43   21   41 1
    44   23   42 1
    45   28   43 1
    46   30   44 1
    47   30   45 1
