@<TRIPOS>MOLECULE
*****
   54    57     0     0     0
SMALL
USER_CHARGES

@<TRIPOS>ATOM
      1 C1         34.6330   18.3790   88.3370 C.2       1 <0>         0.9790
      2 C2         35.5520   17.4410   87.7130 C.ar      1 <0>        -0.1790
      3 C3         35.6220   16.1120   88.2530 C.ar      1 <0>        -0.1500
      4 C4         36.5060   15.2120   87.6690 C.ar      1 <0>        -0.1500
      5 C5         37.3130   15.5740   86.5590 C.ar      1 <0>         0.0000
      6 C6         37.2340   16.8700   86.0530 C.ar      1 <0>         0.0000
      7 C7         36.3560   17.8050   86.6300 C.ar      1 <0>        -0.1500
      8 C8         42.7800   13.8630   81.8470 C.ar      1 <0>        -0.1435
      9 C9         43.1920   13.0000   80.6640 C.3       1 <0>         0.1435
     10 C10        44.6050   13.3080   80.2110 C.3       1 <0>         0.0000
     11 C11        45.0020   14.7270   80.2690 C.3       1 <0>         0.0000
     12 C12        44.8770   15.3370   81.6410 C.3       1 <0>         0.1435
     13 C13        43.5400   14.9400   82.3100 C.ar      1 <0>        -0.1435
     14 C14        42.2110   13.2960   79.5200 C.3       1 <0>         0.0000
     15 C15        43.1640   11.5340   81.0310 C.3       1 <0>         0.0000
     16 C16        44.8570   16.8250   81.3310 C.3       1 <0>         0.0000
     17 C17        46.0300   15.0210   82.6060 C.3       1 <0>         0.0000
     18 O1         34.1880   18.1160   89.4160 O.co2     1 <0>        -0.9000
     19 O2         34.3400   19.4520   87.6620 O.co2     1 <0>        -0.9000
     20 C18        38.2000   14.6500   85.9490 C.ar      1 <0>        -0.1500
     21 C19        39.0090   14.9880   84.8700 C.ar      1 <0>         0.0862
     22 C20        38.8870   16.3130   84.3900 C.ar      1 <0>        -0.1500
     23 C21        38.0310   17.2340   84.9560 C.ar      1 <0>        -0.1500
     24 C22        41.1550   14.3290   83.5980 C.ar      1 <0>         0.0862
     25 C23        41.5880   13.5660   82.4990 C.ar      1 <0>        -0.1500
     26 C24        43.1150   15.6960   83.4000 C.ar      1 <0>        -0.1500
     27 C25        41.9660   15.3780   84.0030 C.ar      1 <0>        -0.1500
     28 C26        39.9170   13.9910   84.2450 C.2       1 <0>         0.3976
     29 O3         39.5140   12.7970   84.3100 O.2       1 <0>        -0.5700
     30 H1         35.0048   15.8199   89.0898 H         1 <0>         0.1500
     31 H2         36.5806   14.2120   88.0701 H         1 <0>         0.1500
     32 H3         36.3031   18.8085   86.2342 H         1 <0>         0.1500
     33 H4         44.6931   12.9839   79.1635 H         1 <0>         0.0000
     34 H5         45.2692   12.7790   80.9103 H         1 <0>         0.0000
     35 H6         46.0546   14.7996   79.9581 H         1 <0>         0.0000
     36 H7         44.3208   15.2805   79.6060 H         1 <0>         0.0000
     37 H8         41.1893   13.3668   79.9215 H         1 <0>         0.0000
     38 H9         42.4832   14.2480   79.0408 H         1 <0>         0.0000
     39 H10        42.2578   12.4851   78.7782 H         1 <0>         0.0000
     40 H11        43.1572   10.9261   80.1143 H         1 <0>         0.0000
     41 H12        44.0553   11.2883   81.6271 H         1 <0>         0.0000
     42 H13        42.2590   11.3207   81.6188 H         1 <0>         0.0000
     43 H14        44.8522   17.3959   82.2712 H         1 <0>         0.0000
     44 H15        45.7503   17.0896   80.7462 H         1 <0>         0.0000
     45 H16        43.9539   17.0663   80.7512 H         1 <0>         0.0000
     46 H17        46.9711   14.9455   82.0415 H         1 <0>         0.0000
     47 H18        46.1139   15.8246   83.3524 H         1 <0>         0.0000
     48 H19        45.8305   14.0665   83.1151 H         1 <0>         0.0000
     49 H20        38.2488   13.6438   86.3384 H         1 <0>         0.1500
     50 H21        39.4888   16.6156   83.5458 H         1 <0>         0.1500
     51 H22        37.9736   18.2353   84.5555 H         1 <0>         0.1500
     52 H23        40.9861   12.7373   82.1563 H         1 <0>         0.1500
     53 H24        43.7063   16.5280   83.7529 H         1 <0>         0.1500
     54 H25        41.6524   15.9693   84.8506 H         1 <0>         0.1500
@<TRIPOS>BOND
     1    9   14 1
     2   10   11 1
     3    9   10 1
     4   11   12 1
     5    9   15 1
     6    8    9 1
     7   12   16 1
     8   12   13 1
     9   12   17 1
    10    8   13 ar
    11    8   25 ar
    12   13   26 ar
    13   24   25 ar
    14   26   27 ar
    15   24   27 ar
    16   24   28 1
    17   28   29 2
    18   21   28 1
    19   21   22 ar
    20   22   23 ar
    21   20   21 ar
    22    6   23 ar
    23    5   20 ar
    24    5    6 ar
    25    6    7 ar
    26    4    5 ar
    27    2    7 ar
    28    1   19 2
    29    3    4 ar
    30    2    3 ar
    31    1    2 1
    32    1   18 1
    33    3   30 1
    34    4   31 1
    35    7   32 1
    36   10   33 1
    37   10   34 1
    38   11   35 1
    39   11   36 1
    40   14   37 1
    41   14   38 1
    42   14   39 1
    43   15   40 1
    44   15   41 1
    45   15   42 1
    46   16   43 1
    47   16   44 1
    48   16   45 1
    49   17   46 1
    50   17   47 1
    51   17   48 1
    52   20   49 1
    53   22   50 1
    54   23   51 1
    55   25   52 1
    56   26   53 1
    57   27   54 1
