@<TRIPOS>MOLECULE
*****
   73    77     0     0     0
SMALL
USER_CHARGES

@<TRIPOS>ATOM
      1 N1          9.8050    6.1680   27.8830 N.pl3     1 <0>        -0.7544
      2 N2         11.8030    6.9570   27.5440 N.pl3     1 <0>        -0.7544
      3 C1         10.5600    6.9200   27.0920 C.cat     1 <0>         0.7308
      4 C2         10.0700    7.6550   25.9890 C.ar      1 <0>        -0.0220
      5 C3          8.6340    7.6730   25.6770 C.ar      1 <0>        -0.1500
      6 C4          8.1090    8.4200   24.5770 C.ar      1 <0>        -0.1500
      7 C5          8.9980    9.1980   23.7180 C.ar      1 <0>         0.1000
      8 C6         10.4200    9.2060   23.9840 C.ar      1 <0>        -0.1500
      9 C7         10.9520    8.4510   25.0980 C.ar      1 <0>        -0.1500
     10 N3          8.5040    9.9850   22.5870 N.pl3     1 <0>        -0.8691
     11 C8          7.2940    9.7650   21.7210 C.3       1 <0>         0.5491
     12 N4          6.5370    7.3620   21.6010 N.2       1 <0>        -0.5653
     13 C9          7.2580    8.3960   20.9890 C.2       1 <0>         0.0065
     14 N5          7.9360    8.1760   19.7600 N.pl3     1 <0>         0.0476
     15 C10         7.5930    6.8280   19.5870 C.ar      1 <0>        -0.1516
     16 C11         6.7510    6.3530   20.7000 C.ar      1 <0>         0.2272
     17 C12         7.9540    5.9060   18.5060 C.ar      1 <0>        -0.1500
     18 C13         7.4880    4.5630   18.5500 C.ar      1 <0>        -0.1500
     19 C14         6.6460    4.0400   19.6450 C.ar      1 <0>        -0.0320
     20 C15         6.2730    4.9700   20.7330 C.ar      1 <0>        -0.1500
     21 C16         8.7750    9.0870   18.9000 C.3       1 <0>         0.2556
     22 C17         5.1230    1.9340   20.5190 C.3       1 <0>        -0.2000
     23 C18         6.5230    1.7830   21.0980 C.3       1 <0>        -0.2000
     24 C19         6.3350    2.4540   19.7270 C.3       1 <0>        -0.0630
     25 C20         6.2810    1.8540   18.2440 C.3       1 <0>         0.5085
     26 N6          5.2320    2.0200   17.4660 N.3       1 <0>        -0.7300
     27 N7          7.3590    0.4090   16.3680 N.ar      1 <0>        -0.6200
     28 C21         7.5180    1.1090   17.6200 C.ar      1 <0>         0.1665
     29 C22         8.8280    1.1140   18.2460 C.ar      1 <0>        -0.1500
     30 C23         9.9220    0.4210   17.6060 C.ar      1 <0>        -0.1500
     31 C24         9.7490   -0.2790   16.3560 C.ar      1 <0>        -0.1500
     32 C25         8.4590   -0.2850   15.7310 C.ar      1 <0>         0.1600
     33 O1          4.0020    2.7470   17.8900 O.3       1 <0>        -0.1800
     34 C26         3.3470    3.3120   16.7420 C.3       1 <0>         0.3410
     35 C27         3.9830    4.6760   16.3910 C.2       1 <0>         0.6590
     36 O2          4.4680    4.8320   15.2560 O.2       1 <0>        -0.5700
     37 O3          3.9950    5.6840   17.3550 O.3       1 <0>        -0.4300
     38 C28         4.3250    8.0300   17.9380 C.3       1 <0>         0.0000
     39 C29         4.6150    6.9140   16.9160 C.3       1 <0>         0.2800
     40 H1          8.8578    6.1561   27.5627 H         1 <0>         0.4500
     41 H2         10.1380    5.6797   28.6896 H         1 <0>         0.4500
     42 H3         11.9107    6.3523   28.3332 H         1 <0>         0.4500
     43 H4         12.5346    7.5135   27.1503 H         1 <0>         0.4500
     44 H5          7.9556    7.1054   26.2967 H         1 <0>         0.1500
     45 H6          7.0472    8.4090   24.3797 H         1 <0>         0.1500
     46 H7         11.0845    9.7755   23.3512 H         1 <0>         0.1500
     47 H8         12.0154    8.4668   25.2858 H         1 <0>         0.1500
     48 H9          9.2615    9.9495   21.9352 H         1 <0>         0.4000
     49 H10         7.2816   10.5548   20.9555 H         1 <0>         0.0000
     50 H11         6.4219    9.7846   22.3911 H         1 <0>         0.0000
     51 H12         8.5680    6.2433   17.6840 H         1 <0>         0.1500
     52 H13         7.7622    3.8955   17.7465 H         1 <0>         0.1500
     53 H14         5.6509    4.6302   21.5478 H         1 <0>         0.1500
     54 H15         8.9793   10.0206   19.4446 H         1 <0>         0.0000
     55 H16         9.7252    8.5890   18.6570 H         1 <0>         0.0000
     56 H17         8.2324    9.3160   17.9709 H         1 <0>         0.0000
     57 H18         4.2393    2.4619   20.9068 H         1 <0>         0.1000
     58 H19         4.2769    1.2613   20.3149 H         1 <0>         0.1000
     59 H20         7.0873    0.8834   21.3849 H         1 <0>         0.1000
     60 H21         7.0179    2.0472   22.0442 H         1 <0>         0.1000
     61 H22         5.9196    1.4300   19.1925 H         1 <0>         0.0000
     62 H23         4.9237    1.0948   17.2447 H         1 <0>         0.3600
     63 H24         8.9831    1.6310   19.1814 H         1 <0>         0.1500
     64 H25        10.8947    0.4269   18.0752 H         1 <0>         0.1500
     65 H26        10.5812   -0.7920   15.8970 H         1 <0>         0.1500
     66 H27         8.3089   -0.8018   14.7946 H         1 <0>         0.1500
     67 H28         2.2795    3.4550   16.9657 H         1 <0>         0.0000
     68 H29         3.4608    2.6288   15.8874 H         1 <0>         0.0000
     69 H30         4.2559    7.5957   18.9463 H         1 <0>         0.0000
     70 H31         5.1382    8.7704   17.9128 H         1 <0>         0.0000
     71 H32         3.3738    8.5208   17.6845 H         1 <0>         0.0000
     72 H33         5.7019    6.7670   16.8326 H         1 <0>         0.0000
     73 H34         4.2067    7.2002   15.9355 H         1 <0>         0.0000
@<TRIPOS>BOND
     1   35   36 2
     2   31   32 ar
     3   27   32 ar
     4   30   31 ar
     5   27   28 ar
     6   34   35 1
     7   35   37 1
     8   33   34 1
     9   37   39 1
    10   38   39 1
    11   26   33 1
    12   25   26 1
    13   29   30 ar
    14   25   28 1
    15   28   29 ar
    16   24   25 1
    17   17   18 ar
    18   15   17 ar
    19   18   19 ar
    20   14   21 1
    21   14   15 1
    22   15   16 ar
    23   19   24 1
    24   19   20 ar
    25   22   24 1
    26   23   24 1
    27   13   14 1
    28   22   23 1
    29   16   20 ar
    30   12   16 1
    31   12   13 2
    32   11   13 1
    33   10   11 1
    34    7   10 1
    35    7    8 ar
    36    6    7 ar
    37    8    9 ar
    38    5    6 ar
    39    4    9 ar
    40    4    5 ar
    41    3    4 1
    42    2    3 1
    43    1    3 2
    44    1   40 1
    45    1   41 1
    46    2   42 1
    47    2   43 1
    48    5   44 1
    49    6   45 1
    50    8   46 1
    51    9   47 1
    52   10   48 1
    53   11   49 1
    54   11   50 1
    55   17   51 1
    56   18   52 1
    57   20   53 1
    58   21   54 1
    59   21   55 1
    60   21   56 1
    61   22   57 1
    62   22   58 1
    63   23   59 1
    64   23   60 1
    65   25   61 1
    66   26   62 1
    67   29   63 1
    68   30   64 1
    69   31   65 1
    70   32   66 1
    71   34   67 1
    72   34   68 1
    73   38   69 1
    74   38   70 1
    75   38   71 1
    76   39   72 1
    77   39   73 1
