@<TRIPOS>MOLECULE
*****
   46    48     0     0     0
SMALL
USER_CHARGES

@<TRIPOS>ATOM
      1 N1         62.9130   41.4220   32.8820 N.4       1 <0>        -0.8530
      2 C1         61.5720   40.9060   33.0890 C.3       1 <0>         0.3970
      3 C2         61.5030   39.4350   33.5200 C.3       1 <0>         0.0000
      4 C3         62.2430   38.4450   32.6350 C.3       1 <0>         0.2300
      5 S1         62.0780   36.7740   33.3550 S.3       1 <0>        -0.4600
      6 C4         60.9900   41.7630   34.2120 C.2       1 <0>         0.9060
      7 O1         61.2100   43.0480   34.3370 O.co2     1 <0>        -0.9000
      8 O2         59.9760   41.2360   34.8330 O.co2     1 <0>        -0.9000
      9 C5         62.1330   35.7440   31.8590 C.3       1 <0>         0.2300
     10 C6         60.7960   36.0780   31.2540 C.3       1 <0>         0.2800
     11 O3         60.7970   35.7030   29.8530 O.3       1 <0>        -0.5600
     12 C7         59.5750   35.4060   31.8820 C.3       1 <0>         0.2800
     13 O4         58.5090   36.3360   32.0340 O.3       1 <0>        -0.6800
     14 C8         59.1990   34.3320   30.8660 C.3       1 <0>         0.2800
     15 O5         57.8080   34.0720   30.8620 O.3       1 <0>        -0.6800
     16 C9         59.6320   34.9820   29.5440 C.3       1 <0>         0.5356
     17 N2         59.9710   34.0010   28.5150 N.pl3     1 <0>         0.0476
     18 C10        60.8300   32.9410   28.6680 C.2       1 <0>         0.0365
     19 N3         60.9690   32.2180   27.5850 N.2       1 <0>        -0.5653
     20 C11        60.1500   32.8290   26.6510 C.ar      1 <0>         0.2272
     21 C12        59.8600   32.5410   25.2990 C.ar      1 <0>         0.4100
     22 N4         60.4050   31.5140   24.6190 N.pl3     1 <0>        -0.9000
     23 N5         58.9950   33.3490   24.6630 N.ar      1 <0>        -0.6200
     24 C13        58.4840   34.3950   25.3320 C.ar      1 <0>         0.4700
     25 N6         58.6840   34.7730   26.5900 N.ar      1 <0>        -0.5670
     26 C14        59.5330   33.9450   27.2120 C.ar      1 <0>         0.1054
     27 H1         63.0775   41.5407   31.9028 H         1 <0>         0.4500
     28 H2         63.0058   42.3036   33.3447 H         1 <0>         0.4500
     29 H3         63.5795   40.7771   33.2560 H         1 <0>         0.4500
     30 H4         61.0277   40.9523   32.1342 H         1 <0>         0.0000
     31 H5         60.4423   39.1435   33.5224 H         1 <0>         0.0000
     32 H6         61.9963   39.3866   34.5020 H         1 <0>         0.0000
     33 H7         63.3063   38.7210   32.5785 H         1 <0>         0.0000
     34 H8         61.8161   38.4587   31.6213 H         1 <0>         0.0000
     35 H9         62.2400   34.6729   32.0855 H         1 <0>         0.0000
     36 H10        62.9935   35.9378   31.2018 H         1 <0>         0.0000
     37 H11        60.6900   37.1580   31.4338 H         1 <0>         0.0000
     38 H12        59.7787   35.0035   32.8852 H         1 <0>         0.0000
     39 H13        58.3978   36.5433   32.9544 H         1 <0>         0.4000
     40 H14        59.6680   33.3582   31.0701 H         1 <0>         0.0000
     41 H15        57.4937   34.0137   31.7566 H         1 <0>         0.4000
     42 H16        58.8098   35.5951   29.1464 H         1 <0>         0.0000
     43 H17        61.3424   32.7240   29.5936 H         1 <0>         0.1500
     44 H18        60.5401   31.7799   23.6645 H         1 <0>         0.4000
     45 H19        61.2865   31.2752   25.0263 H         1 <0>         0.4000
     46 H20        57.8117   35.0211   24.7642 H         1 <0>         0.1500
@<TRIPOS>BOND
     1   21   22 1
     2   21   23 ar
     3   23   24 ar
     4   20   21 ar
     5   24   25 ar
     6   25   26 ar
     7   20   26 ar
     8   19   20 1
     9   17   26 1
    10   18   19 2
    11   17   18 1
    12   16   17 1
    13   11   16 1
    14   14   16 1
    15   10   11 1
    16   14   15 1
    17   12   14 1
    18    9   10 1
    19   10   12 1
    20    5    9 1
    21   12   13 1
    22    4    5 1
    23    3    4 1
    24    1    2 1
    25    2    3 1
    26    2    6 1
    27    6    7 2
    28    6    8 1
    29    1   27 1
    30    1   28 1
    31    1   29 1
    32    2   30 1
    33    3   31 1
    34    3   32 1
    35    4   33 1
    36    4   34 1
    37    9   35 1
    38    9   36 1
    39   10   37 1
    40   12   38 1
    41   13   39 1
    42   14   40 1
    43   15   41 1
    44   16   42 1
    45   18   43 1
    46   22   44 1
    47   22   45 1
    48   24   46 1
