@<TRIPOS>MOLECULE
*****
   24    24     0     0     0
SMALL
USER_CHARGES

@<TRIPOS>ATOM
      1 C1         55.9200   12.3110   28.0800 C.2       1 <0>        -0.3882
      2 C2         54.8520   11.4170   28.1900 C.2       1 <0>        -0.2882
      3 C3         54.9570   10.1530   29.0090 C.3       1 <0>         0.4182
      4 C4         56.1720   10.1590   29.9640 C.3       1 <0>         0.2800
      5 C5         57.4210   10.6520   29.2270 C.3       1 <0>         0.2800
      6 C6         57.1640   12.1000   28.7920 C.3       1 <0>         0.1382
      7 C7         55.7340   13.5390   27.2470 C.2       1 <0>         1.0500
      8 O1         54.9510    8.9680   28.1100 O.3       1 <0>        -0.5512
      9 O2         56.3380    8.8390   30.4950 O.3       1 <0>        -0.6800
     10 O3         58.5520   10.6080   30.1070 O.3       1 <0>        -0.6800
     11 O4         54.8180   13.5330   26.3810 O.co2     1 <0>        -0.9000
     12 O5         56.4720   14.4900   27.4930 O.co2     1 <0>        -0.9000
     13 P1         53.5890    8.0280   27.8830 P.3       1 <0>         1.3712
     14 O6         52.5400    8.8970   27.3000 O.3       1 <0>        -1.0333
     15 O7         53.2750    7.5200   29.2850 O.3       1 <0>        -1.0333
     16 O8         54.0720    6.9740   26.9310 O.2       1 <0>        -1.0333
     17 H1         53.9277   11.6357   27.6760 H         1 <0>         0.1500
     18 H2         54.0748   10.0980   29.6638 H         1 <0>         0.0000
     19 H3         56.0052   10.8527   30.8012 H         1 <0>         0.0000
     20 H4         57.6298   10.0157   28.3544 H         1 <0>         0.0000
     21 H5         57.9860   12.4000   28.1254 H         1 <0>         0.0000
     22 H6         57.1003   12.6960   29.7143 H         1 <0>         0.0000
     23 H7         56.3748    8.2126   29.7817 H         1 <0>         0.4000
     24 H8         59.3521   10.5983   29.5949 H         1 <0>         0.4000
@<TRIPOS>BOND
     1    7   11 2
     2   13   16 2
     3    7   12 1
     4    1    7 1
     5   13   14 1
     6    8   13 1
     7   13   15 1
     8    1    2 2
     9    1    6 1
    10    3    8 1
    11    2    3 1
    12    5    6 1
    13    3    4 1
    14    4    5 1
    15    5   10 1
    16    4    9 1
    17    2   17 1
    18    3   18 1
    19    4   19 1
    20    5   20 1
    21    6   21 1
    22    6   22 1
    23    9   23 1
    24   10   24 1
