@<TRIPOS>MOLECULE
*****
   31    33     0     0     0
SMALL
USER_CHARGES

@<TRIPOS>ATOM
      1 N1         20.6100    8.0510    5.9110 N.pl3     1 <0>         0.0332
      2 C1         19.7640    6.9640    5.8160 C.2       1 <0>        -0.3836
      3 C2         19.7140    5.8250    6.7860 C.2       1 <0>         1.0320
      4 O1         20.6850    5.7130    7.5600 O.co2     1 <0>        -0.9000
      5 O2         18.7110    5.0720    6.7570 O.co2     1 <0>        -0.9000
      6 C3         19.0160    7.0800    4.6740 C.2       1 <0>        -0.1500
      7 C4         19.4270    8.2760    4.0580 C.2       1 <0>        -0.1810
      8 C5         20.4230    8.8570    4.8580 C.2       1 <0>        -0.2046
      9 C6         18.9920    8.8550    2.7940 C.3       1 <0>         0.4610
     10 O3         18.3910    8.2910    1.9180 O.3       1 <0>        -0.6800
     11 C7         19.3580   10.3680    2.5940 C.3       1 <0>         0.4235
     12 O4         19.5350   10.6120    1.2100 O.3       1 <0>        -0.6800
     13 C8         20.6750   10.7740    3.3630 C.ar      1 <0>         0.1665
     14 N2         21.2430   11.8640    2.8220 N.ar      1 <0>        -0.6200
     15 C9         22.3200   12.3990    3.4390 C.ar      1 <0>         0.1310
     16 C10        23.0470   13.5370    2.7410 C.2       1 <0>         0.9790
     17 O5         22.5240   13.9830    1.6990 O.co2     1 <0>        -0.9000
     18 O6         24.1160   13.9570    3.2340 O.co2     1 <0>        -0.9000
     19 C11        22.8450   11.8570    4.6120 C.ar      1 <0>        -0.1500
     20 C12        22.2700   10.6930    5.2090 C.ar      1 <0>        -0.1790
     21 C13        22.9660   10.0660    6.4270 C.2       1 <0>         0.9790
     22 O7         24.1890   10.2890    6.5570 O.co2     1 <0>        -0.9000
     23 O8         22.2810    9.4280    7.2500 O.co2     1 <0>        -0.9000
     24 C14        21.1300   10.1240    4.5520 C.ar      1 <0>         0.0530
     25 H1         21.2620    8.2117    6.6520 H         1 <0>         0.2700
     26 H2         18.2630    6.3922    4.3186 H         1 <0>         0.1500
     27 H3         18.6505    7.8171    2.6672 H         1 <0>         0.0000
     28 H4         17.4941    8.1423    2.1937 H         1 <0>         0.4000
     29 H5         18.5360   10.9730    3.0042 H         1 <0>         0.0000
     30 H6         19.5746   11.5485    1.0556 H         1 <0>         0.4000
     31 H7         23.7003   12.3248    5.0768 H         1 <0>         0.1500
@<TRIPOS>BOND
     1   11   12 1
     2   16   17 2
     3    9   10 1
     4    9   11 1
     5   11   13 1
     6   16   18 1
     7   15   16 1
     8    7    9 1
     9   13   14 ar
    10   14   15 ar
    11   13   24 ar
    12   15   19 ar
    13    6    7 1
    14    7    8 2
    15    8   24 1
    16   20   24 ar
    17   19   20 ar
    18    2    6 2
    19    1    8 1
    20   20   21 1
    21    1    2 1
    22    2    3 1
    23   21   22 2
    24   21   23 1
    25    3    5 2
    26    3    4 1
    27    1   25 1
    28    6   26 1
    29    9   27 1
    30   10   28 1
    31   11   29 1
    32   12   30 1
    33   19   31 1
