@<TRIPOS>MOLECULE
*****
   30    29     0     0     0
SMALL
USER_CHARGES

@<TRIPOS>ATOM
      1 C1          5.6260   -3.5420   19.6820 C.3       1 <0>         0.2800
      2 C2          4.7270   -2.8200   18.7200 C.3       1 <0>         0.1740
      3 C3          5.5060   -2.6490   17.3910 C.3       1 <0>         0.2800
      4 C4          5.7580   -3.9500   16.6360 C.3       1 <0>         0.2800
      5 C5          5.7050   -3.8830   15.1090 C.3       1 <0>         0.2800
      6 C6          3.3600   -3.5240   18.4680 C.2       1 <0>         0.9060
      7 O1          4.9980   -3.6430   20.9630 O.3       1 <0>        -0.5512
      8 O2          4.4250   -1.5620   19.1880 O.3       1 <0>        -0.6800
      9 O3          4.7680   -1.7830   16.5920 O.3       1 <0>        -0.6800
     10 O4          7.0490   -4.2860   16.9620 O.3       1 <0>        -0.6800
     11 O5          6.1520   -5.0860   14.5010 O.3       1 <0>        -0.5512
     12 O6          2.4290   -2.8060   18.0970 O.co2     1 <0>        -0.9000
     13 O7          3.2190   -4.7130   18.6610 O.co2     1 <0>        -0.9000
     14 P1          5.8090   -4.4320   22.1430 P.3       1 <0>         1.3712
     15 P2          7.4030   -5.0870   13.5570 P.3       1 <0>         1.3712
     16 O8          4.9840   -4.2360   23.3230 O.3       1 <0>        -1.0333
     17 O9          7.1520   -3.7180   22.2470 O.3       1 <0>        -1.0333
     18 O10         5.9420   -5.8280   21.6400 O.2       1 <0>        -1.0333
     19 O11         7.7410   -6.5210   13.2970 O.3       1 <0>        -1.0333
     20 O12         8.5130   -4.3800   14.3100 O.3       1 <0>        -1.0333
     21 O13         7.0510   -4.3030   12.3240 O.2       1 <0>        -1.0333
     22 H1          5.8308   -4.5523   19.2981 H         1 <0>         0.0000
     23 H2          6.5663   -2.9808   19.7858 H         1 <0>         0.0000
     24 H3          6.5045   -2.2574   17.6351 H         1 <0>         0.0000
     25 H4          4.9611   -4.6521   16.9224 H         1 <0>         0.0000
     26 H5          6.3520   -3.0596   14.7724 H         1 <0>         0.0000
     27 H6          4.6574   -3.7239   14.8137 H         1 <0>         0.0000
     28 H7          4.3554   -1.5843   20.1352 H         1 <0>         0.4000
     29 H8          4.5997   -0.9782   17.0679 H         1 <0>         0.4000
     30 H9          7.5664   -4.3636   16.1690 H         1 <0>         0.4000
@<TRIPOS>BOND
     1   15   21 2
     2   15   19 1
     3   15   20 1
     4   11   15 1
     5    5   11 1
     6    4    5 1
     7    3    9 1
     8    4   10 1
     9    3    4 1
    10    2    3 1
    11    6   12 2
    12    6   13 1
    13    2    6 1
    14    2    8 1
    15    1    2 1
    16    1    7 1
    17    7   14 1
    18   14   18 2
    19   14   17 1
    20   14   16 1
    21    1   22 1
    22    1   23 1
    23    3   24 1
    24    4   25 1
    25    5   26 1
    26    5   27 1
    27    8   28 1
    28    9   29 1
    29   10   30 1
