@<TRIPOS>MOLECULE
*****
   22    21     0     0     0
SMALL
USER_CHARGES

@<TRIPOS>ATOM
      1 C1         32.2350   10.7740   40.7150 C.3       1 <0>         0.1941
      2 C2         32.0020    9.5600   40.1960 C.2       1 <0>         0.9060
      3 O1         32.7950    8.7780   39.3540 O.co2     1 <0>        -0.9000
      4 O2         31.0470    8.7570   40.5050 O.co2     1 <0>        -0.9000
      5 C3         31.6150   11.8080   39.8080 C.3       1 <0>         0.0000
      6 C4         30.0400   11.6300   39.6880 C.3       1 <0>        -0.1060
      7 C5         29.3980   12.0250   41.0110 C.2       1 <0>         0.9060
      8 O3         29.8270   12.6810   41.9760 O.co2     1 <0>        -0.9000
      9 O4         28.2730   11.4470   41.0240 O.co2     1 <0>        -0.9000
     10 C6         34.5250   10.5930   41.6760 C.2       1 <0>         0.5690
     11 C7         35.8270   10.7220   41.5470 C.3       1 <0>         0.0610
     12 O5         34.0540    9.8180   42.5540 O.2       1 <0>        -0.5700
     13 N1         33.7460   10.9090   40.9420 N.am      1 <0>        -0.7301
     14 H1         31.7666   10.9286   41.6982 H         1 <0>         0.0000
     15 H2         32.0572   11.7064   38.8059 H         1 <0>         0.0000
     16 H3         31.8136   12.8008   40.2380 H         1 <0>         0.0000
     17 H4         29.6549   12.2729   38.8828 H         1 <0>         0.0000
     18 H5         29.7998   10.5821   39.4552 H         1 <0>         0.0000
     19 H6         36.0884   10.7580   40.4791 H         1 <0>         0.0000
     20 H7         36.1534   11.6518   42.0358 H         1 <0>         0.0000
     21 H8         36.3287    9.8639   42.0182 H         1 <0>         0.0000
     22 H9         34.1603   11.4448   40.2063 H         1 <0>         0.3700
@<TRIPOS>BOND
     1    2    3 2
     2    5    6 1
     3    6    7 1
     4    1    5 1
     5    2    4 1
     6    1    2 1
     7    1   13 1
     8   10   13 am
     9    7    9 2
    10    7    8 1
    11   10   11 1
    12   10   12 2
    13    1   14 1
    14    5   15 1
    15    5   16 1
    16    6   17 1
    17    6   18 1
    18   11   19 1
    19   11   20 1
    20   11   21 1
    21   13   22 1
