@<TRIPOS>MOLECULE
*****
   12    12     0     0     0
SMALL
USER_CHARGES

@<TRIPOS>ATOM
      1 N1         64.9620   40.9540   50.4240 N.am      1 <0>        -0.5390
      2 C1         65.4980   42.1190   49.8710 C.2       1 <0>         0.6900
      3 O1         66.3740   42.8430   50.3600 O.2       1 <0>        -0.5700
      4 N2         64.9600   42.4630   48.6430 N.am      1 <0>        -0.4900
      5 C2         63.9910   41.8350   47.8990 C.2       1 <0>         0.6156
      6 O2         63.6200   42.2870   46.8070 O.2       1 <0>        -0.5700
      7 C3         63.4960   40.6660   48.5140 C.2       1 <0>         0.1044
      8 C4         63.9820   40.2580   49.7400 C.2       1 <0>        -0.0410
      9 I1         62.0120   39.5910   47.5040 I         1 <0>        -0.0900
     10 H1         65.2855   40.6244   51.3110 H         1 <0>         0.3700
     11 H2         65.3338   43.2960   48.2351 H         1 <0>         0.3700
     12 H3         63.5805   39.3586   50.1831 H         1 <0>         0.1500
@<TRIPOS>BOND
     1    1    2 am
     2    1    8 1
     3    2    3 2
     4    2    4 am
     5    4    5 am
     6    5    6 2
     7    5    7 1
     8    7    8 2
     9    7    9 1
    10    1   10 1
    11    4   11 1
    12    8   12 1
