@<TRIPOS>MOLECULE
*****
   13    12     0     0     0
SMALL
USER_CHARGES

@<TRIPOS>ATOM
      1 P1         11.7030   23.6460   27.1870 P.3       1 <0>         1.3712
      2 O1         10.4510   23.6110   26.3240 O.2       1 <0>        -1.0333
      3 O2         12.6710   22.5160   26.8700 O.3       1 <0>        -1.0333
      4 O3         11.3730   23.7390   28.6640 O.3       1 <0>        -1.0333
      5 O4         12.4700   24.9810   26.7920 O.3       1 <0>        -0.5424
      6 P2         13.0250   26.1930   27.6610 P.3       1 <0>         1.4424
      7 O5         12.4740   27.4240   27.1340 O.2       1 <0>        -0.9500
      8 O6         12.8340   25.8810   29.0680 O.3       1 <0>        -0.9500
      9 O7         14.5960   26.1170   27.4220 O.3       1 <0>        -0.5424
     10 P3         15.6040   24.8460   27.2740 P.3       1 <0>         1.3712
     11 O8         15.2900   24.0910   26.0330 O.2       1 <0>        -1.0333
     12 O9         15.6360   24.1060   28.5640 O.3       1 <0>        -1.0333
     13 O10        16.9650   25.6560   27.1010 O.3       1 <0>        -1.0333
@<TRIPOS>BOND
     1   10   11 2
     2    1    2 2
     3    1    5 1
     4    5    6 1
     5    1    3 1
     6   10   13 1
     7    6    7 2
     8    1    4 1
     9    9   10 1
    10   10   12 1
    11    6    9 1
    12    6    8 1
