@<TRIPOS>MOLECULE
*****
   30    31     0     0     0
SMALL
USER_CHARGES

@<TRIPOS>ATOM
      1 C1          1.9450   29.1630    6.4530 C.ar      1 <0>         0.7200
      2 C2          0.5870   30.8020    7.3060 C.ar      1 <0>         0.1054
      3 C3         -0.0980   29.8920    8.1730 C.ar      1 <0>         0.2272
      4 C4         -0.8130   25.3460    9.5230 C.2       1 <0>         0.4480
      5 O1         -1.7450   25.7650   10.2480 O.2       1 <0>        -0.5700
      6 C5         -1.3380   23.0230    8.8460 C.3       1 <0>         0.0000
      7 C6         -0.3260   23.9270    9.5200 C.3       1 <0>         0.0610
      8 C7         -0.0060   23.4630   10.9270 C.3       1 <0>         0.0000
      9 N1         -0.0280   31.9510    7.5890 N.pl3     1 <0>         0.0332
     10 N2          1.6100   30.4480    6.4950 N.ar      1 <0>        -0.5670
     11 N3          2.9520   28.8020    5.6460 N.pl3     1 <0>        -0.9000
     12 N4          1.3210   28.2410    7.2470 N.ar      1 <0>        -0.6200
     13 C8          0.3040   28.5100    8.0400 C.ar      1 <0>         0.3925
     14 O2         -0.2760   27.5740    8.7850 O.3       1 <0>        -0.3625
     15 C9         -0.0460   26.2100    8.5600 C.3       1 <0>         0.3410
     16 N5         -1.0500   30.5390    8.8720 N.2       1 <0>        -0.5653
     17 C10        -0.9870   31.7820    8.4880 C.2       1 <0>         0.0365
     18 H1         -2.1580   22.8039    9.5457 H         1 <0>         0.0000
     19 H2         -1.7414   23.5251    7.9543 H         1 <0>         0.0000
     20 H3         -0.8492   22.0835    8.5487 H         1 <0>         0.0000
     21 H4          0.6074   23.8756    8.9402 H         1 <0>         0.0000
     22 H5          0.0715   22.3659   10.9431 H         1 <0>         0.0000
     23 H6          0.9493   23.9027   11.2495 H         1 <0>         0.0000
     24 H7         -0.8067   23.7838   11.6096 H         1 <0>         0.0000
     25 H8          0.2054   32.8306    7.1745 H         1 <0>         0.2700
     26 H9          2.6134   28.7121    4.7094 H         1 <0>         0.4000
     27 H10         3.6688   29.4986    5.6757 H         1 <0>         0.4000
     28 H11        -0.3632   25.9635    7.5360 H         1 <0>         0.0000
     29 H12         1.0269   26.0152    8.7050 H         1 <0>         0.0000
     30 H13        -1.6299   32.5692    8.8532 H         1 <0>         0.1500
@<TRIPOS>BOND
     1    1   11 1
     2    1   10 ar
     3    1   12 ar
     4    2   10 ar
     5   12   13 ar
     6    2    9 1
     7    2    3 ar
     8    9   17 1
     9    3   13 ar
    10   13   14 1
    11    3   16 1
    12   16   17 2
    13   14   15 1
    14    4   15 1
    15    6    7 1
    16    4    7 1
    17    7    8 1
    18    4    5 2
    19    6   18 1
    20    6   19 1
    21    6   20 1
    22    7   21 1
    23    8   22 1
    24    8   23 1
    25    8   24 1
    26    9   25 1
    27   11   26 1
    28   11   27 1
    29   15   28 1
    30   15   29 1
    31   17   30 1
