@<TRIPOS>MOLECULE
*****
   36    34     0     0     0
SMALL
USER_CHARGES

@<TRIPOS>ATOM
      1 C1         89.9550  -69.9480    3.0470 C.3       1 <0>         0.2800
      2 C2         90.1070  -68.4380    3.1780 C.3       1 <0>         0.2800
      3 C3         90.1750  -67.7790    1.7890 C.3       1 <0>         0.2800
      4 C4         90.4590  -66.2700    1.9310 C.3       1 <0>         0.2800
      5 O1         91.1120  -70.5350    2.4770 O.3       1 <0>        -0.6800
      6 O2         89.0030  -67.9080    3.9240 O.3       1 <0>        -0.6800
      7 O3         88.9400  -67.9920    1.0680 O.3       1 <0>        -0.6800
      8 O4         91.8130  -66.0330    2.3090 O.3       1 <0>        -0.6800
      9 H1         89.0916  -70.1636    2.4004 H         1 <0>         0.0000
     10 H2         89.8090  -70.3714    4.0517 H         1 <0>         0.0000
     11 H3         91.0445  -68.2183    3.7099 H         1 <0>         0.0000
     12 H4         90.9947  -68.2416    1.2197 H         1 <0>         0.0000
     13 H5         90.2677  -65.7792    0.9653 H         1 <0>         0.0000
     14 H6         89.8018  -65.8633    2.7138 H         1 <0>         0.0000
     15 H7         90.9752  -70.6664    1.5461 H         1 <0>         0.4000
     16 H8         89.2602  -67.7908    4.8310 H         1 <0>         0.4000
     17 H9         88.2176  -68.0387    1.6832 H         1 <0>         0.4000
     18 H10        92.3550  -65.9803    1.5306 H         1 <0>         0.4000
     19 C5         97.9210  -66.1980  -25.1960 C.3       1 <0>         0.2800
     20 C6         97.0300  -66.8790  -26.2360 C.3       1 <0>         0.2800
     21 C7         96.8200  -66.0320  -27.5050 C.3       1 <0>         0.2800
     22 C8         96.3180  -64.6160  -27.2640 C.3       1 <0>         0.2800
     23 O5         98.2680  -67.1210  -24.1760 O.3       1 <0>        -0.6800
     24 O6         97.6360  -68.1190  -26.6280 O.3       1 <0>        -0.6800
     25 O7         95.8670  -66.7030  -28.3270 O.3       1 <0>        -0.6800
     26 O8         96.2650  -63.8910  -28.4990 O.3       1 <0>        -0.6800
     27 H11        98.8371  -65.8343  -25.6843 H         1 <0>         0.0000
     28 H12        97.3751  -65.3539  -24.7493 H         1 <0>         0.0000
     29 H13        96.0475  -67.0271  -25.7641 H         1 <0>         0.0000
     30 H14        97.8107  -65.9287  -27.9718 H         1 <0>         0.0000
     31 H15        97.0018  -64.1025  -26.5721 H         1 <0>         0.0000
     32 H16        95.3075  -64.6625  -26.8318 H         1 <0>         0.0000
     33 H17        98.3456  -67.9913  -24.5489 H         1 <0>         0.4000
     34 H18        97.7699  -68.1231  -27.5685 H         1 <0>         0.4000
     35 H19        95.0702  -66.8522  -27.8317 H         1 <0>         0.4000
     36 H20        96.2533  -62.9583  -28.3189 H         1 <0>         0.4000
@<TRIPOS>BOND
     1   22   26 1
     2   21   25 1
     3   21   22 1
     4   20   21 1
     5   20   24 1
     6   19   20 1
     7   19   23 1
     8    3    7 1
     9    3    4 1
    10    2    3 1
    11    4    8 1
    12    1    5 1
    13    1    2 1
    14    2    6 1
    15    1    9 1
    16    1   10 1
    17    2   11 1
    18    3   12 1
    19    4   13 1
    20    4   14 1
    21    5   15 1
    22    6   16 1
    23    7   17 1
    24    8   18 1
    25   19   27 1
    26   19   28 1
    27   20   29 1
    28   21   30 1
    29   22   31 1
    30   22   32 1
    31   23   33 1
    32   24   34 1
    33   25   35 1
    34   26   36 1
