@<TRIPOS>MOLECULE
*****
    5     4     0     0     0
SMALL
NO_CHARGES

@<TRIPOS>ATOM
      1 Al1       103.6010   48.7260   66.5410 Al        1 <0>         0.0000
      2 F1        103.3880   50.4450   66.8900 F         1 <0>         0.0000
      3 F2        103.8420   46.9940   66.1290 F         1 <0>         0.0000
      4 F3        103.4560   48.3120   68.2540 F         1 <0>         0.0000
      5 F4        103.8150   49.1340   64.7900 F         1 <0>         0.0000
@<TRIPOS>BOND
     1    1    2 1
     2    1    3 1
     3    1    4 1
     4    1    5 1
