@<TRIPOS>MOLECULE
*****
   43    45     0     0     0
SMALL
USER_CHARGES

@<TRIPOS>ATOM
      1 P1        -16.5320   70.3210    6.5220 P.3       1 <0>         1.3712
      2 O1        -15.9650   69.9880    7.8600 O.3       1 <0>        -1.0333
      3 O2        -15.6060   70.1220    5.3750 O.2       1 <0>        -1.0333
      4 O3        -17.3270   71.6100    6.5200 O.3       1 <0>        -1.0333
      5 P2        -17.4420   67.5080    6.1640 P.3       1 <0>         1.4424
      6 O4        -18.8090   66.9030    6.3340 O.3       1 <0>        -0.9500
      7 O5        -16.6400   67.1300    4.9720 O.2       1 <0>        -0.9500
      8 O6        -17.6170   69.1450    6.2320 O.3       1 <0>        -0.5424
      9 P3        -16.6270   66.1630    8.6310 P.3       1 <0>         1.4424
     10 O7        -17.9170   66.1690    9.3110 O.3       1 <0>        -0.9500
     11 O8        -16.0530   64.8650    8.1480 O.2       1 <0>        -0.9500
     12 O9        -16.7010   67.2730    7.5080 O.3       1 <0>        -0.5424
     13 O10       -15.6140   66.8720    9.5720 O.3       1 <0>        -0.5512
     14 C1        -14.2240   67.0560    9.2720 C.3       1 <0>         0.2800
     15 C2        -13.5130   67.1380   10.5870 C.3       1 <0>         0.2800
     16 O11       -13.7210   65.8660   11.2230 O.3       1 <0>        -0.5600
     17 C3        -12.0380   67.3190   10.5110 C.3       1 <0>         0.2800
     18 O12       -11.7230   68.7110   10.5100 O.3       1 <0>        -0.6800
     19 C4        -11.5330   66.5700   11.7260 C.3       1 <0>         0.2800
     20 O13       -11.5540   67.3210   12.9400 O.3       1 <0>        -0.6800
     21 C5        -12.5510   65.4260   11.9150 C.3       1 <0>         0.5356
     22 N1        -12.1000   64.1460   11.3280 N.pl3     1 <0>         0.0476
     23 C6        -12.4090   63.5880   10.1080 C.2       1 <0>         0.0365
     24 N2        -11.8570   62.4390    9.8720 N.2       1 <0>        -0.5653
     25 C7        -11.1290   62.2170   11.0270 C.ar      1 <0>         0.2272
     26 C8        -10.2930   61.1480   11.4410 C.ar      1 <0>         0.4100
     27 N3        -10.0880   60.1030   10.6490 N.pl3     1 <0>        -0.9000
     28 N4         -9.7040   61.2150   12.6600 N.ar      1 <0>        -0.6200
     29 C9         -9.9270   62.2760   13.4430 C.ar      1 <0>         0.4700
     30 N5        -10.6910   63.3530   13.1740 N.ar      1 <0>        -0.5670
     31 C10       -11.2750   63.2480   11.9290 C.ar      1 <0>         0.1054
     32 H1        -13.8427   66.2107    8.6804 H         1 <0>         0.0000
     33 H2        -14.0639   67.9673    8.6771 H         1 <0>         0.0000
     34 H3        -13.9130   68.0186   11.1110 H         1 <0>         0.0000
     35 H4        -11.5683   66.9331    9.5942 H         1 <0>         0.0000
     36 H5        -11.6530   69.0209   11.4053 H         1 <0>         0.4000
     37 H6        -10.4867   66.2801   11.5492 H         1 <0>         0.0000
     38 H7        -11.5587   66.7262   13.6808 H         1 <0>         0.4000
     39 H8        -12.7067   65.2300   12.9861 H         1 <0>         0.0000
     40 H9        -13.0639   64.0724    9.3989 H         1 <0>         0.1500
     41 H10       -10.0364   60.4095    9.6985 H         1 <0>         0.4000
     42 H11        -9.2298   59.6564   10.9021 H         1 <0>         0.4000
     43 H12        -9.4365   62.2688   14.4052 H         1 <0>         0.1500
@<TRIPOS>BOND
     1    5    7 2
     2    1    3 2
     3    5    8 1
     4    5    6 1
     5    5   12 1
     6    1    8 1
     7    1    4 1
     8    1    2 1
     9    9   12 1
    10    9   11 2
    11    9   10 1
    12    9   13 1
    13   13   14 1
    14   14   15 1
    15   23   24 2
    16   24   25 1
    17   22   23 1
    18   17   18 1
    19   15   17 1
    20   17   19 1
    21   15   16 1
    22   26   27 1
    23   25   26 ar
    24   25   31 ar
    25   16   21 1
    26   21   22 1
    27   22   31 1
    28   26   28 ar
    29   19   21 1
    30   19   20 1
    31   30   31 ar
    32   28   29 ar
    33   29   30 ar
    34   14   32 1
    35   14   33 1
    36   15   34 1
    37   17   35 1
    38   18   36 1
    39   19   37 1
    40   20   38 1
    41   21   39 1
    42   23   40 1
    43   27   41 1
    44   27   42 1
    45   29   43 1
