@<TRIPOS>MOLECULE
*****
   18    17     0     0     0
SMALL
USER_CHARGES

@<TRIPOS>ATOM
      1 C1         37.7200   10.4990   23.4320 C.2       1 <0>         0.9060
      2 O1         38.3350   10.0920   22.5200 O.co2     1 <0>        -0.9000
      3 O2         36.9850   11.5240   23.6450 O.co2     1 <0>        -0.9000
      4 C2         37.8900    9.6450   24.6520 C.3       1 <0>        -0.1060
      5 C3         36.6770    8.7250   25.0600 C.3       1 <0>         0.1740
      6 O3         35.6040    9.7490   25.3090 O.3       1 <0>        -0.6800
      7 C4         36.0170    8.1530   24.0980 C.3       1 <0>        -0.1060
      8 C5         35.5340    6.8320   23.8840 C.2       1 <0>         0.9060
      9 O4         36.4630    5.9750   23.2460 O.co2     1 <0>        -0.9000
     10 O5         34.4730    6.3470   24.0950 O.co2     1 <0>        -0.9000
     11 C6         36.9180    7.9240   26.3100 C.2       1 <0>         0.9060
     12 O6         36.3890    8.2960   27.5670 O.co2     1 <0>        -0.9000
     13 O7         37.7510    6.8140   26.2190 O.co2     1 <0>        -0.9000
     14 H1         38.7472    8.9820   24.4634 H         1 <0>         0.0000
     15 H2         38.0090   10.3527   25.4857 H         1 <0>         0.0000
     16 H3         35.5802    9.9649   26.2338 H         1 <0>         0.4000
     17 H4         36.6938    8.2911   23.2419 H         1 <0>         0.0000
     18 H5         35.0416    8.6044   24.3323 H         1 <0>         0.0000
@<TRIPOS>BOND
     1    1    2 2
     2    8    9 2
     3    1    3 1
     4    1    4 1
     5    8   10 1
     6    7    8 1
     7    5    7 1
     8    4    5 1
     9    5    6 1
    10    5   11 1
    11   11   13 2
    12   11   12 1
    13    4   14 1
    14    4   15 1
    15    6   16 1
    16    7   17 1
    17    7   18 1
