@<TRIPOS>MOLECULE
*****
   18    17     0     0     0
SMALL
USER_CHARGES

@<TRIPOS>ATOM
      1 O1         61.3370   32.8440   45.3510 O.co2     1 <0>        -0.9000
      2 C1         60.1510   32.9620   45.0620 C.2       1 <0>         0.9060
      3 O2         59.7840   32.5900   43.9700 O.co2     1 <0>        -0.9000
      4 C2         59.2030   33.6490   46.0350 C.3       1 <0>        -0.0450
      5 C3         59.3320   33.1300   47.4600 C.2       1 <0>         0.4480
      6 O3         60.3220   33.2500   48.1230 O.2       1 <0>        -0.5700
      7 C4         58.1740   32.3730   48.1100 C.3       1 <0>         0.0610
      8 P1         58.5170   30.5620   47.9030 P.3       1 <0>         0.9000
      9 O4         59.3900   30.1150   49.0080 O.2       1 <0>        -0.9500
     10 O5         59.0820   30.3650   46.5490 O.3       1 <0>        -0.9500
     11 C5         57.0420   29.9030   47.9780 C.3       1 <0>         0.0000
     12 H1         59.4311   34.7251   46.0375 H         1 <0>         0.0000
     13 H2         58.1765   33.4403   45.6991 H         1 <0>         0.0000
     14 H3         58.1050   32.6274   49.1779 H         1 <0>         0.0000
     15 H4         57.2180   32.6445   47.6384 H         1 <0>         0.0000
     16 H5         56.7598   29.7534   49.0306 H         1 <0>         0.0000
     17 H6         56.3159   30.5739   47.4957 H         1 <0>         0.0000
     18 H7         57.0471   28.9333   47.4587 H         1 <0>         0.0000
@<TRIPOS>BOND
     1    1    2 2
     2    2    3 1
     3    2    4 1
     4    4    5 1
     5    5    6 2
     6    5    7 1
     7    7    8 1
     8    8    9 2
     9    8   10 1
    10    8   11 1
    11    4   12 1
    12    4   13 1
    13    7   14 1
    14    7   15 1
    15   11   16 1
    16   11   17 1
    17   11   18 1
