@<TRIPOS>MOLECULE
*****
   58    60     0     0     0
SMALL
USER_CHARGES

@<TRIPOS>ATOM
      1 N1         72.3250  103.4460   25.0960 N.am      1 <0>        -0.4691
      2 C1         72.4620  104.8360   24.8280 C.2       1 <0>         0.6900
      3 N2         71.9060  105.6530   25.7800 N.am      1 <0>        -0.4900
      4 C2         71.2540  105.3000   26.9440 C.2       1 <0>         0.6156
      5 C3         71.1780  103.8580   27.1680 C.2       1 <0>        -0.1356
      6 C4         71.6800  103.0130   26.2440 C.2       1 <0>        -0.0410
      7 O1         73.0400  105.2530   23.8220 O.2       1 <0>        -0.5700
      8 O2         70.8140  106.1160   27.7310 O.2       1 <0>        -0.5700
      9 C5         72.8340  102.4490   24.1160 C.3       1 <0>         0.5801
     10 C6         73.7960  101.4050   24.6950 C.3       1 <0>         0.2800
     11 O3         75.1540  101.8140   24.8130 O.3       1 <0>        -0.6800
     12 C7         73.5000  100.2530   23.7440 C.3       1 <0>         0.2800
     13 C8         72.0300  100.3260   23.4200 C.3       1 <0>         0.2800
     14 O4         71.6720  101.7140   23.6840 O.3       1 <0>        -0.5600
     15 O5         74.2840  100.4150   22.5490 O.3       1 <0>        -0.6800
     16 C9         71.0810   99.4340   24.2410 C.3       1 <0>         0.2800
     17 O6         71.5030   99.5410   25.6100 O.3       1 <0>        -0.5512
     18 P1         70.4700   99.2310   26.7490 P.3       1 <0>         1.4424
     19 O7         71.0910   99.6040   28.0160 O.3       1 <0>        -0.9500
     20 O8         69.1370   99.7040   26.4060 O.2       1 <0>        -0.9500
     21 O9         70.3540   97.6380   26.7060 O.3       1 <0>        -0.5424
     22 P2         71.4060   96.4370   26.9480 P.3       1 <0>         1.4424
     23 O10        72.5090   96.8280   27.8260 O.3       1 <0>        -0.9500
     24 O11        71.7530   95.8510   25.6360 O.2       1 <0>        -0.9500
     25 O12        70.5080   95.4260   27.8300 O.3       1 <0>        -0.5512
     26 C10        69.1250   95.2390   27.8220 C.3       1 <0>         0.5600
     27 C11        68.8250   94.3330   29.0010 C.3       1 <0>         0.2800
     28 C12        69.5220   92.9650   28.8310 C.3       1 <0>         0.2800
     29 C13        69.0960   92.3850   27.4770 C.3       1 <0>         0.2800
     30 C14        69.3690   93.3800   26.3590 C.3       1 <0>         0.2800
     31 C15        68.7240   92.8630   25.0840 C.3       1 <0>         0.2800
     32 O13        69.2600   94.9600   30.2010 O.3       1 <0>        -0.6800
     33 O14        69.1590   92.0670   29.8900 O.3       1 <0>        -0.6800
     34 O15        69.8770   91.2120   27.1700 O.3       1 <0>        -0.6800
     35 O16        68.6910   94.6400   26.6040 O.3       1 <0>        -0.5600
     36 O17        69.6500   91.8670   24.6350 O.3       1 <0>        -0.6800
     37 H1         71.9836  106.6349   25.6074 H         1 <0>         0.3700
     38 H2         70.7228  103.4711   28.0677 H         1 <0>         0.1500
     39 H3         71.5745  101.9505   26.4061 H         1 <0>         0.1500
     40 H4         73.3841  102.9989   23.3382 H         1 <0>         0.0000
     41 H5         73.6431  101.1603   25.7565 H         1 <0>         0.0000
     42 H6         75.5341  101.9051   23.9471 H         1 <0>         0.4000
     43 H7         73.7504   99.2796   24.1910 H         1 <0>         0.0000
     44 H8         71.9041   99.9658   22.3883 H         1 <0>         0.0000
     45 H9         73.7081  100.4507   21.7943 H         1 <0>         0.4000
     46 H10        70.0410   99.7752   24.1311 H         1 <0>         0.0000
     47 H11        71.1192   98.3906   23.8948 H         1 <0>         0.0000
     48 H12        68.5940   96.1992   27.8999 H         1 <0>         0.0000
     49 H13        67.7399   94.1596   29.0504 H         1 <0>         0.0000
     50 H14        70.6134   93.0965   28.8700 H         1 <0>         0.0000
     51 H15        68.0237   92.1499   27.5465 H         1 <0>         0.0000
     52 H16        70.4595   93.5086   26.2933 H         1 <0>         0.0000
     53 H17        68.5954   93.6632   24.3402 H         1 <0>         0.0000
     54 H18        67.7101   92.4675   25.2440 H         1 <0>         0.0000
     55 H19        69.3570   94.3061   30.8833 H         1 <0>         0.4000
     56 H20        69.0788   91.1856   29.5448 H         1 <0>         0.4000
     57 H21        70.0487   91.1808   26.2362 H         1 <0>         0.4000
     58 H22        69.8550   92.0145   23.7192 H         1 <0>         0.4000
@<TRIPOS>BOND
     1   12   15 1
     2   13   14 1
     3   12   13 1
     4   13   16 1
     5    9   14 1
     6   10   12 1
     7    2    7 2
     8    9   10 1
     9    1    9 1
    10   16   17 1
    11   31   36 1
    12   10   11 1
    13    1    2 am
    14    2    3 am
    15   30   31 1
    16    1    6 1
    17   17   18 1
    18   22   24 2
    19    3    4 am
    20    5    6 2
    21   30   35 1
    22   29   30 1
    23   18   20 2
    24   26   35 1
    25   18   21 1
    26   21   22 1
    27   18   19 1
    28    4    5 1
    29    4    8 2
    30   22   23 1
    31   22   25 1
    32   29   34 1
    33   28   29 1
    34   25   26 1
    35   26   27 1
    36   27   28 1
    37   28   33 1
    38   27   32 1
    39    3   37 1
    40    5   38 1
    41    6   39 1
    42    9   40 1
    43   10   41 1
    44   11   42 1
    45   12   43 1
    46   13   44 1
    47   15   45 1
    48   16   46 1
    49   16   47 1
    50   26   48 1
    51   27   49 1
    52   28   50 1
    53   29   51 1
    54   30   52 1
    55   31   53 1
    56   31   54 1
    57   32   55 1
    58   33   56 1
    59   34   57 1
    60   36   58 1
