@<TRIPOS>MOLECULE
*****
   43    45     0     0     0
SMALL
USER_CHARGES

@<TRIPOS>ATOM
      1 P1         35.6850   39.7890   -5.5820 P.3       1 <0>         1.3712
      2 O1         36.7730   39.4690   -6.5900 O.2       1 <0>        -1.0333
      3 O2         34.3960   39.0910   -5.9820 O.3       1 <0>        -1.0333
      4 O3         35.4580   41.2880   -5.5370 O.3       1 <0>        -1.0333
      5 P2         36.8870   37.8650   -3.8460 P.3       1 <0>         1.4424
      6 O4         37.4490   37.3580   -5.1220 O.2       1 <0>        -0.9500
      7 O5         35.9490   37.0210   -3.0590 O.3       1 <0>        -0.9500
      8 O6         36.1320   39.2880   -4.0950 O.3       1 <0>        -0.5424
      9 P3         39.5040   38.9000   -3.3780 P.3       1 <0>         1.4424
     10 O7         39.3100   39.2830   -4.7990 O.2       1 <0>        -0.9500
     11 O8         39.8760   39.9350   -2.3770 O.3       1 <0>        -0.9500
     12 O9         38.1140   38.2430   -2.8370 O.3       1 <0>        -0.5424
     13 O10        40.5530   37.6990   -3.3110 O.3       1 <0>        -0.5512
     14 C1         41.2250   37.3760   -2.0950 C.3       1 <0>         0.2800
     15 C2         42.0380   36.1110   -2.2610 C.3       1 <0>         0.2800
     16 O11        41.1520   34.9570   -2.2350 O.3       1 <0>        -0.5600
     17 C3         42.8450   35.9880   -3.5490 C.3       1 <0>         0.2800
     18 O12        44.0500   35.2680   -3.2960 O.3       1 <0>        -0.6800
     19 C4         41.9000   35.1970   -4.4530 C.3       1 <0>         0.2800
     20 O13        42.5390   34.4890   -5.5020 O.3       1 <0>        -0.6800
     21 C5         41.2620   34.2380   -3.4500 C.3       1 <0>         0.5356
     22 N1         39.9190   33.7970   -3.8280 N.pl3     1 <0>         0.0476
     23 C6         38.8270   34.5820   -4.1050 C.2       1 <0>         0.0365
     24 N2         37.7430   33.9000   -4.3860 N.2       1 <0>        -0.5653
     25 C7         38.1500   32.5760   -4.2940 C.ar      1 <0>         0.2272
     26 C8         37.4630   31.3610   -4.4710 C.ar      1 <0>         0.4100
     27 N3         36.1690   31.2830   -4.7970 N.pl3     1 <0>        -0.9000
     28 N4         38.1610   30.2140   -4.3010 N.ar      1 <0>        -0.6200
     29 C9         39.4590   30.2950   -3.9850 C.ar      1 <0>         0.4700
     30 N5         40.2150   31.3770   -3.7940 N.ar      1 <0>        -0.5670
     31 C10        39.4900   32.4980   -3.9610 C.ar      1 <0>         0.1054
     32 H1         41.8966   38.2036   -1.8230 H         1 <0>         0.0000
     33 H2         40.4766   37.2183   -1.3045 H         1 <0>         0.0000
     34 H3         42.7549   36.1546   -1.4279 H         1 <0>         0.0000
     35 H4         43.1537   36.9482   -3.9880 H         1 <0>         0.0000
     36 H5         44.5019   35.1079   -4.1162 H         1 <0>         0.4000
     37 H6         41.2023   35.8502   -4.9975 H         1 <0>         0.0000
     38 H7         42.6819   35.0729   -6.2376 H         1 <0>         0.4000
     39 H8         41.8873   33.3351   -3.3883 H         1 <0>         0.0000
     40 H9         38.8581   35.6615   -4.0926 H         1 <0>         0.1500
     41 H10        35.6156   31.2635   -3.9643 H         1 <0>         0.4000
     42 H11        35.9154   32.0787   -5.3470 H         1 <0>         0.4000
     43 H12        39.9668   29.3490   -3.8679 H         1 <0>         0.1500
@<TRIPOS>BOND
     1    1    2 2
     2    1    3 1
     3    1    4 1
     4    1    8 1
     5   19   20 1
     6    5    6 2
     7    9   10 2
     8   26   27 1
     9   26   28 ar
    10   25   26 ar
    11   17   19 1
    12   19   21 1
    13   24   25 1
    14   23   24 2
    15   28   29 ar
    16   25   31 ar
    17   22   23 1
    18    5    8 1
    19   29   30 ar
    20   22   31 1
    21   30   31 ar
    22    5    7 1
    23    5   12 1
    24   21   22 1
    25   17   18 1
    26   15   17 1
    27   16   21 1
    28    9   13 1
    29    9   12 1
    30    9   11 1
    31   13   14 1
    32   15   16 1
    33   14   15 1
    34   14   32 1
    35   14   33 1
    36   15   34 1
    37   17   35 1
    38   18   36 1
    39   19   37 1
    40   20   38 1
    41   21   39 1
    42   23   40 1
    43   27   41 1
    44   27   42 1
    45   29   43 1
