@<TRIPOS>MOLECULE
*****
   31    31     0     0     0
SMALL
USER_CHARGES

@<TRIPOS>ATOM
      1 N1         -4.9210   66.0730   10.1950 N.4       1 <0>        -0.9060
      2 C1         -5.3230   66.5970    8.8640 C.3       1 <0>         0.8031
      3 C2         -4.1330   66.9630    7.8870 C.3       1 <0>         0.2800
      4 C3         -2.9250   67.6140    8.5930 C.3       1 <0>         0.2800
      5 C4         -2.5140   66.7250    9.7690 C.3       1 <0>         0.0000
      6 C5         -1.2940   67.1970   10.5530 C.3       1 <0>         0.2800
      7 C6         -5.8370   64.3160    8.0960 C.2       1 <0>         0.5690
      8 C7         -6.6540   63.2520    7.4090 C.3       1 <0>         0.0610
      9 C8         -3.6480   66.5190   10.7820 C.3       1 <0>         0.5030
     10 N2         -6.2190   65.6240    8.2000 N.am      1 <0>        -0.7301
     11 O1         -4.7800   63.9530    8.5930 O.2       1 <0>        -0.5700
     12 O2         -4.6120   67.8320    6.8690 O.3       1 <0>        -0.6800
     13 O3         -3.3200   68.8920    9.0900 O.3       1 <0>        -0.6800
     14 O4         -0.6840   66.1220   11.2590 O.3       1 <0>        -0.6800
     15 H1         -5.6387   66.3471   10.8351 H         1 <0>         0.4500
     16 H2         -4.7915   65.0930   10.0439 H         1 <0>         0.4500
     17 H3         -5.8329   67.5492    9.0721 H         1 <0>         0.0000
     18 H4         -3.7711   66.0148    7.4628 H         1 <0>         0.0000
     19 H5         -2.0845   67.7278    7.8926 H         1 <0>         0.0000
     20 H6         -2.2553   65.7830    9.2634 H         1 <0>         0.0000
     21 H7         -0.5620   67.6212    9.8499 H         1 <0>         0.0000
     22 H8         -1.6208   67.9517   11.2835 H         1 <0>         0.0000
     23 H9         -6.8530   63.5552    6.3705 H         1 <0>         0.0000
     24 H10        -6.0979   62.3029    7.4135 H         1 <0>         0.0000
     25 H11        -7.6075   63.1213    7.9417 H         1 <0>         0.0000
     26 H12        -3.3220   65.7520   11.4999 H         1 <0>         0.0000
     27 H13        -3.8404   67.4994   11.2421 H         1 <0>         0.0000
     28 H14        -7.0988   65.9220    7.8296 H         1 <0>         0.3700
     29 H15        -4.7189   68.7069    7.2233 H         1 <0>         0.4000
     30 H16        -3.4078   68.8514   10.0351 H         1 <0>         0.4000
     31 H17        -0.5481   65.3909   10.6678 H         1 <0>         0.4000
@<TRIPOS>BOND
     1    3   12 1
     2    7    8 1
     3    3    4 1
     4    2    3 1
     5    7   10 am
     6    7   11 2
     7    2   10 1
     8    4   13 1
     9    4    5 1
    10    1    2 1
    11    5    6 1
    12    5    9 1
    13    1    9 1
    14    6   14 1
    15    1   15 1
    16    1   16 1
    17    2   17 1
    18    3   18 1
    19    4   19 1
    20    5   20 1
    21    6   21 1
    22    6   22 1
    23    8   23 1
    24    8   24 1
    25    8   25 1
    26    9   26 1
    27    9   27 1
    28   10   28 1
    29   12   29 1
    30   13   30 1
    31   14   31 1
