@<TRIPOS>MOLECULE
*****
   30    30     0     0     0
SMALL
USER_CHARGES

@<TRIPOS>ATOM
      1 C1        -20.1230  -33.3750  -25.6980 C.3       1 <0>         0.5600
      2 C2        -20.1150  -32.4010  -26.9680 C.3       1 <0>         0.3001
      3 C3        -20.1450  -33.2910  -28.2690 C.3       1 <0>         0.2800
      4 C4        -18.8690  -34.1010  -28.2500 C.3       1 <0>         0.2800
      5 C5        -18.8700  -34.9980  -26.9600 C.3       1 <0>         0.2800
      6 C6        -17.5910  -35.8330  -26.8480 C.3       1 <0>         0.2800
      7 C7        -21.0830  -30.2010  -26.7210 C.2       1 <0>         0.5690
      8 C8        -22.2400  -29.2520  -26.6660 C.3       1 <0>         0.0610
      9 N1        -21.3130  -31.5480  -26.9260 N.am      1 <0>        -0.7301
     10 O1        -20.0960  -32.6590  -24.4230 O.3       1 <0>        -0.6800
     11 O2        -20.1310  -32.4790  -29.4420 O.3       1 <0>        -0.6800
     12 O3        -18.8100  -34.9580  -29.4460 O.3       1 <0>        -0.6800
     13 O4        -18.9460  -34.2190  -25.7260 O.3       1 <0>        -0.5600
     14 O5        -17.7860  -36.5760  -25.6040 O.3       1 <0>        -0.6800
     15 O6        -19.9310  -29.7230  -26.5760 O.2       1 <0>        -0.5700
     16 H1        -21.0576  -33.9513  -25.7639 H         1 <0>         0.0000
     17 H2        -19.2171  -31.7655  -26.9646 H         1 <0>         0.0000
     18 H3        -21.0525  -33.9124  -28.2852 H         1 <0>         0.0000
     19 H4        -17.9960  -33.4317  -28.2459 H         1 <0>         0.0000
     20 H5        -19.7612  -35.6334  -27.0698 H         1 <0>         0.0000
     21 H6        -17.4706  -36.5076  -27.7085 H         1 <0>         0.0000
     22 H7        -16.6775  -35.2202  -26.8432 H         1 <0>         0.0000
     23 H8        -22.4745  -29.0193  -25.6168 H         1 <0>         0.0000
     24 H9        -21.9792  -28.3249  -27.1976 H         1 <0>         0.0000
     25 H10       -23.1164  -29.7147  -27.1433 H         1 <0>         0.0000
     26 H11       -22.2347  -31.9193  -27.0386 H         1 <0>         0.3700
     27 H12       -20.0901  -33.2846  -23.7081 H         1 <0>         0.4000
     28 H13       -20.1279  -31.5622  -29.1930 H         1 <0>         0.4000
     29 H14       -18.7973  -34.4146  -30.2252 H         1 <0>         0.4000
     30 H15       -17.8283  -37.5060  -25.7934 H         1 <0>         0.4000
@<TRIPOS>BOND
     1    4   12 1
     2    3   11 1
     3    3    4 1
     4    2    3 1
     5    4    5 1
     6    2    9 1
     7    1    2 1
     8    5    6 1
     9    5   13 1
    10    7    9 am
    11    6   14 1
    12    7    8 1
    13    7   15 2
    14    1   13 1
    15    1   10 1
    16    1   16 1
    17    2   17 1
    18    3   18 1
    19    4   19 1
    20    5   20 1
    21    6   21 1
    22    6   22 1
    23    8   23 1
    24    8   24 1
    25    8   25 1
    26    9   26 1
    27   10   27 1
    28   11   28 1
    29   12   29 1
    30   14   30 1
