@<TRIPOS>MOLECULE
*****
   54    53     0     0     0
SMALL
USER_CHARGES

@<TRIPOS>ATOM
      1 N1         75.6580   24.5330   13.1260 N.4       1 <0>        -0.8530
      2 C1         76.5020   25.6550   12.6090 C.3       1 <0>         0.3970
      3 C2         77.1480   25.2170   11.2740 C.2       1 <0>         0.9060
      4 O1         77.4110   24.0020   11.1450 O.co2     1 <0>        -0.9000
      5 O2         77.4070   26.0740   10.4080 O.co2     1 <0>        -0.9000
      6 C3         77.5580   25.9660   13.6760 C.3       1 <0>         0.0000
      7 C4         78.4250   27.1760   13.2170 C.3       1 <0>         0.0610
      8 C5         79.4290   27.5030   14.3290 C.2       1 <0>         0.5690
      9 O3         79.4710   26.9910   15.4190 O.2       1 <0>        -0.5700
     10 N2         80.2930   28.5270   13.9400 N.am      1 <0>        -0.7301
     11 C6         81.3360   29.0020   14.8070 C.3       1 <0>         0.3611
     12 C7         81.0380   30.4830   14.9990 C.2       1 <0>         0.5690
     13 O4         80.8110   31.2990   14.1170 O.2       1 <0>        -0.5700
     14 C8         82.6890   28.8670   14.0840 C.3       1 <0>         0.2300
     15 S1         83.1030   27.1300   13.8020 S.3       1 <0>        -0.4600
     16 C9         84.1410   26.6840   15.1900 C.3       1 <0>         0.2300
     17 C10        84.9670   25.4150   14.8470 C.3       1 <0>         0.0000
     18 C11        86.3420   25.4690   15.5490 C.3       1 <0>         0.0000
     19 C12        86.6040   24.1300   16.2480 C.3       1 <0>         0.0000
     20 C13        87.4150   24.3130   17.5550 C.3       1 <0>         0.0000
     21 C14        88.3030   23.0790   17.7650 C.3       1 <0>         0.0000
     22 N3         81.1110   30.8340   16.3620 N.am      1 <0>        -0.7301
     23 C15        80.7860   32.2140   16.7580 C.3       1 <0>         0.1941
     24 C16        79.4870   32.2410   17.5570 C.2       1 <0>         0.9060
     25 O5         79.2060   33.3420   18.1140 O.co2     1 <0>        -0.9000
     26 O6         78.7000   31.2730   17.6310 O.co2     1 <0>        -0.9000
     27 H1         75.4697   23.8882   12.3852 H         1 <0>         0.4500
     28 H2         76.1443   24.0621   13.8621 H         1 <0>         0.4500
     29 H3         74.7958   24.8989   13.4763 H         1 <0>         0.4500
     30 H4         75.9099   26.5614   12.4144 H         1 <0>         0.0000
     31 H5         77.0581   26.2130   14.6242 H         1 <0>         0.0000
     32 H6         78.2039   25.0869   13.8176 H         1 <0>         0.0000
     33 H7         78.9630   26.9198   12.2924 H         1 <0>         0.0000
     34 H8         77.7827   28.0472   13.0209 H         1 <0>         0.0000
     35 H9         80.1839   28.9404   13.0360 H         1 <0>         0.3700
     36 H10        81.3790   28.4466   15.7555 H         1 <0>         0.0000
     37 H11        83.4732   29.3251   14.7047 H         1 <0>         0.0000
     38 H12        82.6188   29.3737   13.1102 H         1 <0>         0.0000
     39 H13        84.8264   27.5148   15.4136 H         1 <0>         0.0000
     40 H14        83.5068   26.4776   16.0647 H         1 <0>         0.0000
     41 H15        84.4205   24.5235   15.1883 H         1 <0>         0.0000
     42 H16        85.1203   25.3688   13.7587 H         1 <0>         0.0000
     43 H17        87.1291   25.6556   14.8035 H         1 <0>         0.0000
     44 H18        86.3460   26.2804   16.2917 H         1 <0>         0.0000
     45 H19        85.6378   23.6656   16.4944 H         1 <0>         0.0000
     46 H20        87.1897   23.4957   15.5664 H         1 <0>         0.0000
     47 H21        88.0433   25.2126   17.4780 H         1 <0>         0.0000
     48 H22        86.7284   24.4274   18.4068 H         1 <0>         0.0000
     49 H23        88.5155   22.6098   16.7930 H         1 <0>         0.0000
     50 H24        89.2476   23.3837   18.2392 H         1 <0>         0.0000
     51 H25        87.7823   22.3590   18.4134 H         1 <0>         0.0000
     52 H26        81.3789   30.1575   17.0480 H         1 <0>         0.3700
     53 H27        81.6013   32.6143   17.3785 H         1 <0>         0.0000
     54 H28        80.6642   32.8280   15.8535 H         1 <0>         0.0000
@<TRIPOS>BOND
     1    3    5 2
     2    3    4 1
     3    2    3 1
     4    1    2 1
     5    2    6 1
     6    6    7 1
     7    7    8 1
     8   14   15 1
     9   15   16 1
    10    8   10 am
    11   10   11 1
    12   11   14 1
    13   12   13 2
    14    8    9 2
    15   11   12 1
    16   16   17 1
    17   17   18 1
    18   12   22 am
    19   18   19 1
    20   19   20 1
    21   22   23 1
    22   23   24 1
    23   20   21 1
    24   24   26 2
    25   24   25 1
    26    1   27 1
    27    1   28 1
    28    1   29 1
    29    2   30 1
    30    6   31 1
    31    6   32 1
    32    7   33 1
    33    7   34 1
    34   10   35 1
    35   11   36 1
    36   14   37 1
    37   14   38 1
    38   16   39 1
    39   16   40 1
    40   17   41 1
    41   17   42 1
    42   18   43 1
    43   18   44 1
    44   19   45 1
    45   19   46 1
    46   20   47 1
    47   20   48 1
    48   21   49 1
    49   21   50 1
    50   21   51 1
    51   22   52 1
    52   23   53 1
    53   23   54 1
