@<TRIPOS>MOLECULE
*****
   38    40     0     0     0
SMALL
USER_CHARGES

@<TRIPOS>ATOM
      1 P1          9.6600   14.8690  -25.8930 P.3       1 <0>         1.3712
      2 O1          9.2070   15.5120  -24.6730 O.3       1 <0>        -1.0333
      3 O2          8.8160   13.8380  -26.4550 O.3       1 <0>        -1.0333
      4 O3         10.1840   15.8250  -27.0380 O.2       1 <0>        -1.0333
      5 P2         14.8830   10.8780  -26.0260 P.3       1 <0>         1.3712
      6 O4         15.9030   10.5420  -24.9960 O.3       1 <0>        -1.0333
      7 O5         15.4250   10.7230  -27.4540 O.2       1 <0>        -1.0333
      8 O6         13.4910   10.3110  -25.8410 O.3       1 <0>        -1.0333
      9 O7         14.6860   12.4710  -25.9570 O.3       1 <0>        -0.5512
     10 C1         14.1600   13.2830  -24.8220 C.3       1 <0>         0.2800
     11 C2         13.6600   14.6360  -25.3960 C.3       1 <0>         0.2800
     12 O8         14.3760   14.9180  -26.6760 O.3       1 <0>        -0.5600
     13 C3         12.2280   14.5450  -25.9080 C.3       1 <0>         0.2800
     14 O9         11.0300   14.2370  -25.2510 O.3       1 <0>        -0.5512
     15 C4         12.5010   16.0180  -26.7690 C.3       1 <0>         0.2800
     16 O10        12.1830   17.2550  -26.0250 O.3       1 <0>        -0.6800
     17 C5         13.9700   16.1860  -27.0240 C.3       1 <0>         0.5356
     18 N1         14.5400   16.7210  -28.3180 N.pl3     1 <0>         0.0476
     19 C6         13.9230   17.1340  -29.5100 C.2       1 <0>         0.0365
     20 N2         14.8690   17.5680  -30.3530 N.2       1 <0>        -0.5653
     21 C7         16.0880   17.4550  -29.7710 C.ar      1 <0>         0.2272
     22 C8         17.4160   17.7650  -30.1840 C.ar      1 <0>         0.4100
     23 N3         17.6540   18.2690  -31.4060 N.pl3     1 <0>        -0.9000
     24 N4         18.4350   17.5300  -29.3410 N.ar      1 <0>        -0.6200
     25 C9         18.1860   17.0080  -28.0790 C.ar      1 <0>         0.4700
     26 N5         16.9460   16.7170  -27.6900 N.ar      1 <0>        -0.5670
     27 C10        15.8910   16.9290  -28.4840 C.ar      1 <0>         0.1054
     28 H1         13.3303   12.7523  -24.3322 H         1 <0>         0.0000
     29 H2         14.9491   13.4525  -24.0746 H         1 <0>         0.0000
     30 H3         13.7963   15.3670  -24.5854 H         1 <0>         0.0000
     31 H4         11.8924   13.5873  -26.3325 H         1 <0>         0.0000
     32 H5         11.8561   15.9154  -27.6542 H         1 <0>         0.0000
     33 H6         12.1148   17.0588  -25.0980 H         1 <0>         0.4000
     34 H7         14.3616   17.0528  -26.4715 H         1 <0>         0.0000
     35 H8         12.8626   17.1063  -29.7131 H         1 <0>         0.1500
     36 H9         17.7132   19.2657  -31.3503 H         1 <0>         0.4000
     37 H10        18.5167   17.9030  -31.7551 H         1 <0>         0.4000
     38 H11        19.0101   16.8353  -27.4026 H         1 <0>         0.1500
@<TRIPOS>BOND
     1   22   23 1
     2   20   21 1
     3   19   20 2
     4   21   22 ar
     5   22   24 ar
     6   21   27 ar
     7   18   19 1
     8   24   25 ar
     9   18   27 1
    10   26   27 ar
    11   17   18 1
    12   25   26 ar
    13    5    7 2
    14    1    4 2
    15   15   17 1
    16   12   17 1
    17   15   16 1
    18   13   15 1
    19   11   12 1
    20    1    3 1
    21    5    9 1
    22    5    8 1
    23    5    6 1
    24    9   10 1
    25   11   13 1
    26   13   14 1
    27    1   14 1
    28    1    2 1
    29   10   11 1
    30   10   28 1
    31   10   29 1
    32   11   30 1
    33   13   31 1
    34   15   32 1
    35   16   33 1
    36   17   34 1
    37   19   35 1
    38   23   36 1
    39   23   37 1
    40   25   38 1
