@<TRIPOS>MOLECULE
*****
   53    53     0     0     0
SMALL
USER_CHARGES

@<TRIPOS>ATOM
      1 N1        -27.3070  -64.0400   24.7640 N.ar      1 <0>        -0.6200
      2 C1        -25.9930  -64.1980   25.4030 C.ar      1 <0>         0.4765
      3 C2        -25.4240  -63.1740   26.1510 C.3       1 <0>         0.1435
      4 N2        -25.2600  -65.4080   25.2760 N.ar      1 <0>        -0.6200
      5 C3        -25.8020  -66.5270   24.4990 C.ar      1 <0>         0.4100
      6 N3        -24.9690  -67.7140   24.4360 N.pl3     1 <0>        -0.9000
      7 C4        -27.1950  -66.3990   23.8020 C.ar      1 <0>        -0.1435
      8 C5        -27.8580  -65.1690   23.9770 C.ar      1 <0>         0.1600
      9 C6        -27.7990  -67.5210   22.9880 C.3       1 <0>         0.6465
     10 N4        -27.0130  -67.7820   21.7980 N.4       1 <0>        -0.9590
     11 C7        -26.2310  -69.0560   21.5680 C.3       1 <0>         0.7330
     12 S1        -26.6140  -69.5520   20.0780 S.3       1 <0>        -0.4600
     13 C8        -26.7930  -67.8560   19.5970 C.3       1 <0>         0.2300
     14 C9        -27.4530  -67.2640   20.5830 C.3       1 <0>         0.5030
     15 C10       -28.4860  -66.3350   20.2690 C.3       1 <0>         0.0000
     16 C11       -27.5950  -67.9510   18.3070 C.3       1 <0>         0.0000
     17 C12       -26.5420  -67.4380   17.3460 C.3       1 <0>         0.2800
     18 O1        -26.8020  -66.7530   16.0280 O.3       1 <0>        -0.5512
     19 P1        -25.8660  -66.3950   14.8380 P.3       1 <0>         1.4424
     20 O2        -25.2770  -67.8230   14.5660 O.3       1 <0>        -0.5424
     21 O3        -26.5720  -65.8830   13.6430 O.2       1 <0>        -0.9500
     22 O4        -24.8150  -65.5830   15.4320 O.3       1 <0>        -0.9500
     23 P2        -25.8670  -69.1770   13.7900 P.3       1 <0>         1.3712
     24 O5        -24.7770  -69.6480   12.8360 O.2       1 <0>        -1.0333
     25 O6        -26.3910  -70.0310   14.8430 O.3       1 <0>        -1.0333
     26 O7        -27.0020  -68.5680   12.9360 O.3       1 <0>        -1.0333
     27 C13       -26.0290  -70.5290   22.8650 C.2       1 <0>         0.4490
     28 O8        -26.0800  -70.3580   24.0890 O.2       1 <0>        -0.5700
     29 C14       -25.5710  -71.9420   22.3450 C.3       1 <0>         0.0610
     30 H1        -25.2737  -63.5151   27.1859 H         1 <0>         0.0000
     31 H2        -24.4545  -62.8950   25.7126 H         1 <0>         0.0000
     32 H3        -26.0936  -62.3013   26.1465 H         1 <0>         0.0000
     33 H4        -24.7774  -67.9370   23.4802 H         1 <0>         0.4000
     34 H5        -24.1091  -67.5435   24.9171 H         1 <0>         0.4000
     35 H6        -28.8238  -65.0408   23.5109 H         1 <0>         0.1500
     36 H7        -28.8181  -67.2360   22.6877 H         1 <0>         0.0000
     37 H8        -27.8158  -68.4320   23.6043 H         1 <0>         0.0000
     38 H9        -26.3199  -67.1923   22.2125 H         1 <0>         0.4500
     39 H10       -26.5042  -69.8183   22.3125 H         1 <0>         0.0000
     40 H11       -25.1489  -68.8860   21.6683 H         1 <0>         0.0000
     41 H12       -25.8692  -67.2828   19.4295 H         1 <0>         0.0000
     42 H13       -27.9182  -66.3902   21.0627 H         1 <0>         0.0000
     43 H14       -29.0539  -66.0955   21.1801 H         1 <0>         0.0000
     44 H15       -28.0405  -65.4151   19.8624 H         1 <0>         0.0000
     45 H16       -29.1615  -66.7770   19.5218 H         1 <0>         0.0000
     46 H17       -28.5087  -67.3386   18.3175 H         1 <0>         0.0000
     47 H18       -28.0017  -68.9464   18.0754 H         1 <0>         0.0000
     48 H19       -25.9613  -68.3326   17.0769 H         1 <0>         0.0000
     49 H20       -26.1337  -66.5990   17.9285 H         1 <0>         0.0000
     50 H21       -26.2893  -69.7373   22.1781 H         1 <0>         0.0600
     51 H22       -25.4641  -71.9136   21.2506 H         1 <0>         0.0000
     52 H23       -24.6050  -72.2048   22.8008 H         1 <0>         0.0000
     53 H24       -26.3238  -72.6953   22.6202 H         1 <0>         0.0000
@<TRIPOS>BOND
     1   23   24 2
     2   23   26 1
     3   19   21 2
     4   20   23 1
     5   23   25 1
     6   19   20 1
     7   19   22 1
     8   18   19 1
     9   17   18 1
    10   16   17 1
    11   13   16 1
    12   12   13 1
    13   13   14 1
    14   11   12 1
    15   14   15 1
    16   10   14 1
    17   10   11 1
    18    9   10 1
    19   27   29 1
    20   27   28 2
    21    7    9 1
    22    7    8 ar
    23    5    7 ar
    24    1    8 ar
    25    5    6 1
    26    4    5 ar
    27    1    2 ar
    28    2    4 ar
    29    2    3 1
    30    3   30 1
    31    3   31 1
    32    3   32 1
    33    6   33 1
    34    6   34 1
    35    8   35 1
    36    9   36 1
    37    9   37 1
    38   10   38 1
    39   11   39 1
    40   11   40 1
    41   13   41 1
    42   14   42 1
    43   15   43 1
    44   15   44 1
    45   15   45 1
    46   16   46 1
    47   16   47 1
    48   17   48 1
    49   17   49 1
    50   27   50 1
    51   29   51 1
    52   29   52 1
    53   29   53 1
