@<TRIPOS>MOLECULE
*****
   24    23     0     0     0
SMALL
USER_CHARGES

@<TRIPOS>ATOM
      1 C1         61.2550   87.6300    1.2800 C.3       1 <0>         0.3970
      2 C2         61.3200   88.7690    0.2620 C.3       1 <0>         0.0000
      3 C3         61.7620   88.3180   -1.1210 C.3       1 <0>         0.0000
      4 C4         62.0330   89.4570   -2.1190 C.3       1 <0>         0.0000
      5 C5         62.3110   88.9600   -3.5280 C.3       1 <0>        -0.1060
      6 C6         62.5660   86.8210    1.3220 C.2       1 <0>         0.9060
      7 O1         62.7270   85.7930    0.6810 O.co2     1 <0>        -0.9000
      8 O2         63.5550   87.2330    2.0590 O.co2     1 <0>        -0.9000
      9 N1         60.9520   88.0980    2.6390 N.4       1 <0>        -0.8530
     10 C7         62.4070   90.0200   -4.6050 C.2       1 <0>         0.9060
     11 O3         62.3310   89.7340   -5.7980 O.co2     1 <0>        -0.9000
     12 O4         62.5870   91.2800   -4.3340 O.co2     1 <0>        -0.9000
     13 H1         60.4326   86.9852    0.9368 H         1 <0>         0.0000
     14 H2         60.3157   89.2093    0.1748 H         1 <0>         0.0000
     15 H3         62.0672   89.4899    0.6252 H         1 <0>         0.0000
     16 H4         62.6950   87.7471   -1.0041 H         1 <0>         0.0000
     17 H5         60.9303   87.7307   -1.5374 H         1 <0>         0.0000
     18 H6         61.1459   90.1067   -2.1507 H         1 <0>         0.0000
     19 H7         62.9302   89.9920   -1.7742 H         1 <0>         0.0000
     20 H8         63.2751   88.4310   -3.5035 H         1 <0>         0.0000
     21 H9         61.4466   88.3364   -3.7999 H         1 <0>         0.0000
     22 H10        60.8831   87.3131    3.2548 H         1 <0>         0.4500
     23 H11        61.6823   88.7047    2.9530 H         1 <0>         0.4500
     24 H12        60.0842   88.5949    2.6344 H         1 <0>         0.4500
@<TRIPOS>BOND
     1    1    2 1
     2    1    6 1
     3    1    9 1
     4    2    3 1
     5    3    4 1
     6    4    5 1
     7    5   10 1
     8    6    7 2
     9    6    8 1
    10   10   11 2
    11   10   12 1
    12    1   13 1
    13    2   14 1
    14    2   15 1
    15    3   16 1
    16    3   17 1
    17    4   18 1
    18    4   19 1
    19    5   20 1
    20    5   21 1
    21    9   22 1
    22    9   23 1
    23    9   24 1
