@<TRIPOS>MOLECULE
*****
   39    41     0     0     0
SMALL
USER_CHARGES

@<TRIPOS>ATOM
      1 P1         -0.7120   48.5650   10.7430 P.3       1 <0>         1.3712
      2 O1          0.4930   49.4320   10.8240 O.3       1 <0>        -1.0333
      3 O2         -0.6960   47.6210    9.5750 O.2       1 <0>        -1.0333
      4 O3         -1.1290   47.9210   12.1130 O.3       1 <0>        -1.0333
      5 P2         -3.0810   50.1070   11.2300 P.3       1 <0>         1.4424
      6 O4         -4.2410   50.4090   10.3070 O.2       1 <0>        -0.9500
      7 O5         -3.3860   49.1460   12.3510 O.3       1 <0>        -0.9500
      8 O6         -1.8700   49.5990   10.3780 O.3       1 <0>        -0.5424
      9 O7         -2.6110   51.5560   11.7010 O.3       1 <0>        -0.5512
     10 C1         -1.6010   51.7070   12.7460 C.3       1 <0>         0.2800
     11 C2         -2.0380   52.6110   13.9080 C.3       1 <0>         0.2800
     12 O8         -2.2610   53.9560   13.4120 O.3       1 <0>        -0.5600
     13 C3         -3.3610   52.2650   14.5910 C.3       1 <0>         0.2800
     14 O9         -3.1010   51.2120   15.5410 O.3       1 <0>        -0.6800
     15 C4         -3.7360   53.6220   15.2050 C.3       1 <0>         0.2800
     16 O10        -2.8920   53.9870   16.3020 O.3       1 <0>        -0.6800
     17 C5         -3.3720   54.5730   14.0500 C.3       1 <0>         0.5356
     18 N1         -4.5020   54.6790   13.0660 N.pl3     1 <0>         0.0476
     19 C6         -4.6590   53.9650   11.9290 C.2       1 <0>         0.0365
     20 N2         -5.7300   54.3480   11.2140 N.2       1 <0>        -0.5653
     21 C7         -6.2860   55.3360   11.9650 C.ar      1 <0>         0.2272
     22 C8         -7.4330   56.1620   11.7220 C.ar      1 <0>         0.4100
     23 N3         -8.1920   56.1290   10.6830 N.pl3     1 <0>        -0.9000
     24 N4         -7.6650   57.0690   12.7150 N.ar      1 <0>        -0.6200
     25 C9         -6.8700   57.1860   13.8330 C.ar      1 <0>         0.4700
     26 N5         -5.8180   56.4290   14.0790 N.ar      1 <0>        -0.5670
     27 C10        -5.5520   55.5440   13.1200 C.ar      1 <0>         0.1054
     28 H1         -1.3824   50.7094   13.1546 H         1 <0>         0.0000
     29 H2         -0.7250   52.1823   12.2805 H         1 <0>         0.0000
     30 H3         -1.2204   52.4863   14.6333 H         1 <0>         0.0000
     31 H4         -4.1794   51.8775   13.9664 H         1 <0>         0.0000
     32 H5         -3.0438   50.3805   15.0850 H         1 <0>         0.4000
     33 H6         -4.7715   53.6325   15.5761 H         1 <0>         0.0000
     34 H7         -1.9953   54.0679   15.9990 H         1 <0>         0.4000
     35 H8         -3.1575   55.5879   14.4159 H         1 <0>         0.0000
     36 H9         -3.9933   53.1700   11.6270 H         1 <0>         0.1500
     37 H10        -9.1500   56.1204   10.9696 H         1 <0>         0.4000
     38 H11        -8.0201   56.9367   10.1191 H         1 <0>         0.4000
     39 H12        -7.1242   57.9472   14.5557 H         1 <0>         0.1500
@<TRIPOS>BOND
     1    1    3 2
     2    5    6 2
     3    1    8 1
     4    5    8 1
     5   22   23 1
     6    1    2 1
     7    1    4 1
     8   19   20 2
     9   20   21 1
    10    5    9 1
    11    5    7 1
    12    9   10 1
    13   21   22 ar
    14   22   24 ar
    15   18   19 1
    16   21   27 ar
    17   24   25 ar
    18   10   11 1
    19   18   27 1
    20   17   18 1
    21   26   27 ar
    22   11   12 1
    23   12   17 1
    24   25   26 ar
    25   11   13 1
    26   15   17 1
    27   13   15 1
    28   13   14 1
    29   15   16 1
    30   10   28 1
    31   10   29 1
    32   11   30 1
    33   13   31 1
    34   14   32 1
    35   15   33 1
    36   16   34 1
    37   17   35 1
    38   19   36 1
    39   23   37 1
    40   23   38 1
    41   25   39 1
