@<TRIPOS>MOLECULE
*****
   44    46     0     0     0
SMALL
USER_CHARGES

@<TRIPOS>ATOM
      1 C1         13.7320   24.1770   32.2440 C.ar      1 <0>         0.0000
      2 C2         15.0590   24.2740   31.7180 C.ar      1 <0>         0.4100
      3 C3         14.6820   22.5230   30.2630 C.ar      1 <0>         0.7200
      4 C4         12.8780   23.3290   31.5750 C.ar      1 <0>         0.6200
      5 C5         13.1900   24.9470   33.3790 C.ar      1 <0>        -0.1435
      6 C6         11.8790   24.9590   33.5350 C.ar      1 <0>         0.0284
      7 C7         11.0050   23.9870   32.7670 C.ar      1 <0>         0.1600
      8 C8         14.0540   25.6400   34.3650 C.3       1 <0>         0.1435
      9 C9         11.0920   25.9000   34.4630 C.2       1 <0>        -0.1784
     10 C10         9.6990   24.1260   35.8350 C.ar      1 <0>         0.0284
     11 C11        10.5750   23.1020   36.1780 C.ar      1 <0>         0.0825
     12 C12        10.0870   21.8830   36.5780 C.ar      1 <0>        -0.1500
     13 C13         8.7060   21.6770   36.6270 C.ar      1 <0>        -0.1500
     14 C14         7.8140   22.6790   36.2890 C.ar      1 <0>         0.0825
     15 C15         8.3300   23.8990   35.8950 C.ar      1 <0>        -0.1500
     16 C16        10.1650   25.5060   35.3870 C.2       1 <0>        -0.1784
     17 C17        12.6970   22.2420   36.0020 C.3       1 <0>         0.2800
     18 C18         5.6270   23.6940   36.2150 C.3       1 <0>         0.2800
     19 N1         15.5040   23.4370   30.7740 N.ar      1 <0>        -0.6200
     20 N2         13.3990   22.4420   30.6080 N.ar      1 <0>        -0.6200
     21 N3         11.5550   23.2240   31.8130 N.ar      1 <0>        -0.6200
     22 N4         15.9540   25.1520   32.1230 N.pl3     1 <0>        -0.9000
     23 N5         15.1430   21.6620   29.3730 N.pl3     1 <0>        -0.9000
     24 O1         11.9030   23.4250   36.0890 O.3       1 <0>        -0.3625
     25 O2          6.4510   22.5660   36.3120 O.3       1 <0>        -0.3625
     26 H1          9.9503   23.9105   32.9866 H         1 <0>         0.1500
     27 H2         15.0478   25.8116   33.9258 H         1 <0>         0.0000
     28 H3         13.6009   26.6054   34.6348 H         1 <0>         0.0000
     29 H4         14.1543   25.0170   35.2660 H         1 <0>         0.0000
     30 H5         11.2879   26.9586   34.3775 H         1 <0>         0.1500
     31 H6         10.7655   21.0890   36.8528 H         1 <0>         0.1500
     32 H7          8.3264   20.7142   36.9356 H         1 <0>         0.1500
     33 H8          7.6519   24.6957   35.6271 H         1 <0>         0.1500
     34 H9          9.6721   26.3231   35.8927 H         1 <0>         0.1500
     35 H10        12.9012   22.0137   34.9455 H         1 <0>         0.0000
     36 H11        13.6473   22.3985   36.5335 H         1 <0>         0.0000
     37 H12        12.1543   21.4020   36.4600 H         1 <0>         0.0000
     38 H13         5.4109   24.0786   37.2227 H         1 <0>         0.0000
     39 H14         6.1376   24.4714   35.6277 H         1 <0>         0.0000
     40 H15         4.6851   23.4180   35.7184 H         1 <0>         0.0000
     41 H16        16.5694   25.3744   31.3668 H         1 <0>         0.4000
     42 H17        15.4902   25.9828   32.4306 H         1 <0>         0.4000
     43 H18        15.2595   22.1220   28.4927 H         1 <0>         0.4000
     44 H19        16.0245   21.3042   29.6811 H         1 <0>         0.4000
@<TRIPOS>BOND
     1    3   23 1
     2    3   20 ar
     3    3   19 ar
     4    4   20 ar
     5    2   19 ar
     6    4   21 ar
     7    1    4 ar
     8    2   22 1
     9    1    2 ar
    10    7   21 ar
    11    1    5 ar
    12    6    7 ar
    13    5    6 ar
    14    5    8 1
    15    6    9 1
    16    9   16 2
    17   10   16 1
    18   10   15 ar
    19   10   11 ar
    20   14   15 ar
    21   17   24 1
    22   11   24 1
    23   11   12 ar
    24   18   25 1
    25   14   25 1
    26   13   14 ar
    27   12   13 ar
    28    7   26 1
    29    8   27 1
    30    8   28 1
    31    8   29 1
    32    9   30 1
    33   12   31 1
    34   13   32 1
    35   15   33 1
    36   16   34 1
    37   17   35 1
    38   17   36 1
    39   17   37 1
    40   18   38 1
    41   18   39 1
    42   18   40 1
    43   22   41 1
    44   22   42 1
    45   23   43 1
    46   23   44 1
