@<TRIPOS>MOLECULE
*****
   70    74     0     0     0
SMALL
USER_CHARGES

@<TRIPOS>ATOM
      1 P1        -45.4030   34.2330   75.9940 P.3       1 <0>         1.4424
      2 O1        -45.3800   34.8730   74.6450 O.2       1 <0>        -0.9500
      3 O2        -46.7480   33.9050   76.5060 O.3       1 <0>        -0.9500
      4 O3        -44.4170   33.0080   76.0020 O.3       1 <0>        -0.5512
      5 C1        -44.5450   31.8390   76.8620 C.3       1 <0>         0.2800
      6 C2        -44.1730   30.6290   76.0380 C.3       1 <0>         0.2800
      7 O4        -44.1260   29.4840   76.9430 O.3       1 <0>        -0.5600
      8 C3        -45.1910   30.2510   74.9220 C.3       1 <0>         0.2800
      9 O5        -44.5370   30.2620   73.6520 O.3       1 <0>        -0.6800
     10 C4        -45.6910   28.8900   75.3470 C.3       1 <0>         0.2800
     11 O6        -46.0500   27.9940   74.2880 O.3       1 <0>        -0.6800
     12 C5        -44.5230   28.3520   76.1790 C.3       1 <0>         0.5356
     13 N1        -44.7960   27.2330   77.0730 N.pl3     1 <0>         0.0476
     14 C6        -45.9470   26.8370   77.7000 C.2       1 <0>         0.0365
     15 N2        -45.7650   25.7410   78.4300 N.2       1 <0>        -0.5653
     16 C7        -44.4550   25.4040   78.2630 C.ar      1 <0>         0.2272
     17 C8        -43.6640   24.3630   78.7810 C.ar      1 <0>         0.4100
     18 N3        -44.1020   23.4000   79.6030 N.pl3     1 <0>        -0.9000
     19 N4        -42.3650   24.3380   78.4120 N.ar      1 <0>        -0.6200
     20 C9        -41.8830   25.2960   77.5620 C.ar      1 <0>         0.4700
     21 N5        -42.5280   26.3030   77.0350 N.ar      1 <0>        -0.5670
     22 C10       -43.8290   26.3030   77.4240 C.ar      1 <0>         0.1054
     23 O7        -44.7020   35.2360   77.0450 O.3       1 <0>        -0.5424
     24 P2        -43.3880   36.1130   77.0760 P.3       1 <0>         1.4424
     25 O8        -43.6390   37.4960   76.6430 O.3       1 <0>        -0.9500
     26 O9        -42.2850   35.4450   76.4050 O.2       1 <0>        -0.9500
     27 O10       -43.2140   36.1280   78.7080 O.3       1 <0>        -0.5512
     28 C11       -42.8260   34.8520   79.2850 C.3       1 <0>         0.2800
     29 C12       -43.1510   34.9040   80.7850 C.3       1 <0>         0.2800
     30 O11       -42.3370   35.9750   81.3530 O.3       1 <0>        -0.5600
     31 C13       -44.5970   35.3070   81.0870 C.3       1 <0>         0.2800
     32 O12       -45.0180   34.5550   82.2260 O.3       1 <0>        -0.6800
     33 C14       -44.4890   36.8010   81.3660 C.3       1 <0>         0.2800
     34 O13       -45.5620   37.2610   82.1800 O.3       1 <0>        -0.6800
     35 C15       -43.1770   36.7840   82.1950 C.3       1 <0>         0.7680
     36 N6        -42.5260   38.0880   82.2620 N.ar      1 <0>        -0.2100
     37 C16       -41.8470   38.2900   83.4340 C.ar      1 <0>         0.2110
     38 C17       -41.1240   39.4170   83.6240 C.ar      1 <0>         0.0862
     39 C18       -40.3320   39.7120   84.9410 C.2       1 <0>         0.5438
     40 O14       -39.9140   40.8430   85.1280 O.2       1 <0>        -0.5700
     41 N7        -40.0960   38.6580   85.7270 N.am      1 <0>        -0.8000
     42 C19       -40.9260   40.4110   82.6330 C.ar      1 <0>        -0.1500
     43 C20       -41.5600   40.0530   81.4170 C.ar      1 <0>        -0.1500
     44 C21       -42.4110   38.9950   81.1910 C.ar      1 <0>         0.2110
     45 H1        -43.8724   31.9296   77.7277 H         1 <0>         0.0000
     46 H2        -45.5735   31.7480   77.2414 H         1 <0>         0.0000
     47 H3        -43.2209   30.8767   75.5459 H         1 <0>         0.0000
     48 H4        -46.0314   30.9510   74.8047 H         1 <0>         0.0000
     49 H5        -45.1880   30.2644   72.9601 H         1 <0>         0.4000
     50 H6        -46.6454   28.9758   75.8872 H         1 <0>         0.0000
     51 H7        -46.1295   28.4793   73.4752 H         1 <0>         0.4000
     52 H8        -43.7711   27.9263   75.4983 H         1 <0>         0.0000
     53 H9        -46.8911   27.3539   77.6119 H         1 <0>         0.1500
     54 H10       -44.2111   22.5481   79.0908 H         1 <0>         0.4000
     55 H11       -43.4393   23.2635   80.3393 H         1 <0>         0.4000
     56 H12       -40.8405   25.2091   77.2934 H         1 <0>         0.1500
     57 H13       -43.3840   34.0345   78.8051 H         1 <0>         0.0000
     58 H14       -41.7527   34.6683   79.1289 H         1 <0>         0.0000
     59 H15       -42.9680   33.8989   81.1927 H         1 <0>         0.0000
     60 H16       -45.3300   35.1129   80.2901 H         1 <0>         0.0000
     61 H17       -45.1115   33.6407   81.9855 H         1 <0>         0.4000
     62 H18       -44.5088   37.4460   80.4752 H         1 <0>         0.0000
     63 H19       -45.2598   37.3635   83.0748 H         1 <0>         0.4000
     64 H20       -43.3551   36.4543   83.2292 H         1 <0>         0.0000
     65 H21       -41.8892   37.5431   84.2130 H         1 <0>         0.1500
     66 H22       -40.5163   37.8471   85.3199 H         1 <0>         0.3700
     67 H23       -39.5818   38.6769   86.5845 H         1 <0>         0.3700
     68 H24       -40.3656   41.3217   82.7847 H         1 <0>         0.1500
     69 H25       -41.3506   40.6853   80.5669 H         1 <0>         0.1500
     70 H26       -42.9494   38.8700   80.2631 H         1 <0>         0.1500
@<TRIPOS>BOND
     1    8    9 1
     2   10   11 1
     3    1    2 2
     4    8   10 1
     5    6    8 1
     6   10   12 1
     7    1    4 1
     8    1    3 1
     9    1   23 1
    10    4    5 1
    11    5    6 1
    12    6    7 1
    13    7   12 1
    14   12   13 1
    15   24   26 2
    16   24   25 1
    17   21   22 ar
    18   20   21 ar
    19   23   24 1
    20   13   22 1
    21   13   14 1
    22   24   27 1
    23   16   22 ar
    24   19   20 ar
    25   14   15 2
    26   15   16 1
    27   16   17 ar
    28   17   19 ar
    29   27   28 1
    30   17   18 1
    31   28   29 1
    32   29   31 1
    33   29   30 1
    34   31   33 1
    35   31   32 1
    36   43   44 ar
    37   36   44 ar
    38   30   35 1
    39   33   34 1
    40   33   35 1
    41   42   43 ar
    42   35   36 1
    43   36   37 ar
    44   38   42 ar
    45   37   38 ar
    46   38   39 1
    47   39   40 2
    48   39   41 am
    49    5   45 1
    50    5   46 1
    51    6   47 1
    52    8   48 1
    53    9   49 1
    54   10   50 1
    55   11   51 1
    56   12   52 1
    57   14   53 1
    58   18   54 1
    59   18   55 1
    60   20   56 1
    61   28   57 1
    62   28   58 1
    63   29   59 1
    64   31   60 1
    65   32   61 1
    66   33   62 1
    67   34   63 1
    68   35   64 1
    69   37   65 1
    70   41   66 1
    71   41   67 1
    72   42   68 1
    73   43   69 1
    74   44   70 1
