@<TRIPOS>MOLECULE
*****
   19    19     0     0     0
SMALL
USER_CHARGES

@<TRIPOS>ATOM
      1 O1         56.1950   41.4410   14.3090 O.3       1 <0>        -0.5325
      2 C1         57.3570   42.2260   13.9470 C.ar      1 <0>         0.0825
      3 C2         58.0010   41.9840   12.6590 C.ar      1 <0>        -0.1500
      4 C3         59.1250   42.7260   12.2850 C.ar      1 <0>        -0.1500
      5 C4         59.6580   43.7340   13.1310 C.ar      1 <0>        -0.1435
      6 C5         59.0150   43.9790   14.4310 C.ar      1 <0>        -0.1435
      7 C6         57.8460   43.2010   14.8070 C.ar      1 <0>        -0.1500
      8 C7         60.8950   44.5240   12.6660 C.3       1 <0>         0.1435
      9 C8         59.5600   45.0510   15.3710 C.3       1 <0>         0.1435
     10 H1         56.2069   41.2691   15.2432 H         1 <0>         0.4500
     11 H2         57.6078   41.2297   11.9936 H         1 <0>         0.1500
     12 H3         59.5972   42.5287   11.3340 H         1 <0>         0.1500
     13 H4         57.3584   43.3808   15.7537 H         1 <0>         0.1500
     14 H5         60.8252   44.7124   11.5845 H         1 <0>         0.0000
     15 H6         60.9405   45.4830   13.2029 H         1 <0>         0.0000
     16 H7         61.8032   43.9409   12.8784 H         1 <0>         0.0000
     17 H8         59.6911   44.6253   16.3768 H         1 <0>         0.0000
     18 H9         60.5299   45.4092   14.9954 H         1 <0>         0.0000
     19 H10        58.8517   45.8913   15.4183 H         1 <0>         0.0000
@<TRIPOS>BOND
     1    1    2 1
     2    2    3 ar
     3    2    7 ar
     4    3    4 ar
     5    4    5 ar
     6    5    6 ar
     7    5    8 1
     8    6    7 ar
     9    6    9 1
    10    1   10 1
    11    3   11 1
    12    4   12 1
    13    7   13 1
    14    8   14 1
    15    8   15 1
    16    8   16 1
    17    9   17 1
    18    9   18 1
    19    9   19 1
