@<TRIPOS>MOLECULE
*****
   48    50     0     0     0
SMALL
USER_CHARGES

@<TRIPOS>ATOM
      1 P1          4.3380   11.6160   14.5370 P.3       1 <0>         1.4424
      2 O1          4.8790   11.5650   13.1430 O.2       1 <0>        -0.9500
      3 O2          4.6520   10.3140   15.1730 O.3       1 <0>        -0.9500
      4 O3          5.0720   12.8000   15.3760 O.3       1 <0>        -0.5424
      5 O4          2.6940   11.8040   14.5170 O.3       1 <0>        -0.5512
      6 P2          4.7920   14.3820   15.2510 P.3       1 <0>         1.4424
      7 O5          5.0420   14.8820   13.8760 O.2       1 <0>        -0.9500
      8 O6          5.7220   15.0480   16.1890 O.3       1 <0>        -0.9500
      9 O7          3.4030   14.6910   15.6410 O.3       1 <0>        -0.5424
     10 P3          2.4340   15.0700   16.8580 P.3       1 <0>         1.3712
     11 O8          1.0640   14.6170   16.4200 O.2       1 <0>        -1.0333
     12 O9          2.4600   16.5190   17.1820 O.3       1 <0>        -1.0333
     13 O10         2.9580   14.2410   17.9790 O.3       1 <0>        -1.0333
     14 C1          1.9910   12.4980   13.4960 C.3       1 <0>         0.2800
     15 C2          0.7800   11.8080   12.9320 C.3       1 <0>         0.2800
     16 O11         1.2290   10.6910   12.0800 O.3       1 <0>        -0.5600
     17 C3         -0.1140   11.0800   13.9000 C.3       1 <0>         0.2800
     18 O12        -1.0170   11.9950   14.5720 O.3       1 <0>        -0.6800
     19 C4         -0.9200   10.1670   12.9380 C.3       1 <0>         0.2800
     20 O13        -1.9590   10.8410   12.1640 O.3       1 <0>        -0.6800
     21 C5          0.2140    9.6490   12.0510 C.3       1 <0>         0.7940
     22 N1          1.0060    8.4560   12.5810 N.pl3     1 <0>        -0.7640
     23 C6          2.1430    8.3370   13.2910 C.cat     1 <0>         0.6500
     24 N2          2.3950    7.0770   13.4850 N.pl3     1 <0>        -0.7640
     25 C7          3.5410    6.5470   14.2140 C.3       1 <0>         0.5140
     26 C8          1.3710    6.1980   12.8720 C.2       1 <0>         0.2770
     27 C9          1.1410    4.9300   12.7650 C.2       1 <0>         0.7030
     28 O14         1.9070    4.0150   13.2680 O.2       1 <0>        -0.5700
     29 N3         -0.0460    4.6730   12.0320 N.am      1 <0>        -0.4900
     30 C10        -0.8920    5.6390   11.4800 C.2       1 <0>         0.5600
     31 N4         -1.9660    5.2630   10.8220 N.pl3     1 <0>        -0.8500
     32 N5         -0.6400    6.9430   11.6010 N.2       1 <0>        -0.5880
     33 C11         0.5220    7.2210   12.3160 C.2       1 <0>         0.4880
     34 H1          2.6940   12.6541   12.6645 H         1 <0>         0.0000
     35 H2          1.6156   13.4184   13.9672 H         1 <0>         0.0000
     36 H3          0.2318   12.6389   12.4640 H         1 <0>         0.0000
     37 H4          0.4325   10.5553   14.6975 H         1 <0>         0.0000
     38 H5         -1.2144   11.6649   15.4407 H         1 <0>         0.4000
     39 H6         -1.5102    9.4025   13.4645 H         1 <0>         0.0000
     40 H7         -2.7196   10.9874   12.7141 H         1 <0>         0.4000
     41 H8         -0.2638    9.3741   11.0991 H         1 <0>         0.0000
     42 H9          2.7496    9.1581   13.6435 H         1 <0>         0.1500
     43 H10         4.3862    6.4135   13.5227 H         1 <0>         0.0000
     44 H11         3.8262    7.2505   15.0101 H         1 <0>         0.0000
     45 H12         3.2752    5.5769   14.6593 H         1 <0>         0.0000
     46 H13        -0.3002    3.7151   11.8983 H         1 <0>         0.3700
     47 H14        -2.7312    5.1675   11.4587 H         1 <0>         0.4000
     48 H15        -2.1911    5.9501   10.1312 H         1 <0>         0.4000
@<TRIPOS>BOND
     1   30   31 1
     2   30   32 2
     3   29   30 1
     4   32   33 1
     5   27   29 am
     6   16   21 1
     7   21   22 1
     8   19   21 1
     9   15   16 1
    10   19   20 1
    11   22   33 1
    12   26   33 2
    13   22   23 2
    14   26   27 1
    15   27   28 2
    16   24   26 1
    17   14   15 1
    18   15   17 1
    19   17   19 1
    20    1    2 2
    21   23   24 1
    22   24   25 1
    23    5   14 1
    24    6    7 2
    25   17   18 1
    26    1    5 1
    27    1    3 1
    28    1    4 1
    29    4    6 1
    30    6    9 1
    31    6    8 1
    32    9   10 1
    33   10   11 2
    34   10   12 1
    35   10   13 1
    36   14   34 1
    37   14   35 1
    38   15   36 1
    39   17   37 1
    40   18   38 1
    41   19   39 1
    42   20   40 1
    43   21   41 1
    44   23   42 1
    45   25   43 1
    46   25   44 1
    47   25   45 1
    48   29   46 1
    49   31   47 1
    50   31   48 1
