@<TRIPOS>MOLECULE
*****
   28    29     0     0     0
SMALL
USER_CHARGES

@<TRIPOS>ATOM
      1 N1        -15.7330   11.4100   29.6010 N.2       1 <0>        -0.6290
      2 C1        -14.4450   11.7590   29.8110 C.2       1 <0>         0.5600
      3 N2        -13.9560   11.9810   31.0590 N.pl3     1 <0>        -0.8500
      4 N3        -13.5620   11.8610   28.7600 N.am      1 <0>        -0.4900
      5 C2        -13.9140   11.5740   27.4830 C.2       1 <0>         0.5438
      6 O1        -13.0790   11.5890   26.5370 O.2       1 <0>        -0.5700
      7 C3        -15.2590   11.1710   27.1940 C.ar      1 <0>         0.3962
      8 C4        -16.1430   11.1290   28.3270 C.ar      1 <0>         0.4890
      9 N4        -15.6460   10.7410   25.9310 N.ar      1 <0>        -0.6200
     10 N5        -17.4490   10.7990   28.0980 N.ar      1 <0>        -0.6200
     11 C5        -17.0500   10.5000   25.6940 C.ar      1 <0>         0.1665
     12 C6        -17.9690   10.8770   26.7990 C.ar      1 <0>         0.1600
     13 C7        -17.4050    9.8010   24.3630 C.3       1 <0>         0.4235
     14 O2        -18.2860    8.6730   24.6640 O.3       1 <0>        -0.6800
     15 C8        -18.1440   10.6790   23.3530 C.3       1 <0>         0.2800
     16 C9        -17.3680   11.9530   23.0990 C.3       1 <0>         0.0000
     17 O3        -19.4540   11.0180   23.9080 O.3       1 <0>        -0.6800
     18 H1        -12.9582   12.0355   31.0217 H         1 <0>         0.4000
     19 H2        -14.3237   12.8410   31.4128 H         1 <0>         0.4000
     20 H3        -12.6254   12.1581   28.9457 H         1 <0>         0.3700
     21 H4        -18.9841   11.1944   26.6110 H         1 <0>         0.1500
     22 H5        -16.4458    9.5146   23.9071 H         1 <0>         0.0000
     23 H6        -18.4770    8.1975   23.8640 H         1 <0>         0.4000
     24 H7        -18.2535   10.1352   22.4031 H         1 <0>         0.0000
     25 H8        -17.1797   12.4649   24.0543 H         1 <0>         0.0000
     26 H9        -16.4090   11.7084   22.6190 H         1 <0>         0.0000
     27 H10       -17.9513   12.6119   22.4390 H         1 <0>         0.0000
     28 H11       -19.3887   11.0915   24.8529 H         1 <0>         0.4000
@<TRIPOS>BOND
     1   15   16 1
     2   15   17 1
     3   13   15 1
     4   13   14 1
     5   11   13 1
     6    9   11 ar
     7   11   12 ar
     8    7    9 ar
     9    5    6 2
    10   10   12 ar
    11    5    7 1
    12    7    8 ar
    13    4    5 am
    14    8   10 ar
    15    1    8 1
    16    2    4 1
    17    1    2 2
    18    2    3 1
    19    3   18 1
    20    3   19 1
    21    4   20 1
    22   12   21 1
    23   13   22 1
    24   14   23 1
    25   15   24 1
    26   16   25 1
    27   16   26 1
    28   16   27 1
    29   17   28 1
