@<TRIPOS>MOLECULE
*****
   31    31     0     0     0
SMALL
USER_CHARGES

@<TRIPOS>ATOM
      1 S1         -5.8750    0.9760   16.7230 S.o2      1 <0>         1.4470
      2 O1         -7.2940    1.0670   16.5960 O.2       1 <0>        -0.6500
      3 O2         -5.3240    1.1220   18.0570 O.2       1 <0>        -0.6500
      4 N1         -5.3450   -0.3490   16.0460 N.pl3     1 <0>        -0.9780
      5 C1         -3.3030    3.4230   14.8150 C.ar      1 <0>        -0.1500
      6 C2         -3.8810    2.3560   15.4860 C.ar      1 <0>        -0.1500
      7 C3         -5.2230    2.3320   15.7890 C.ar      1 <0>        -0.0090
      8 C4         -6.0240    3.3900   15.4230 C.ar      1 <0>        -0.1500
      9 C5         -5.4770    4.4450   14.7200 C.ar      1 <0>        -0.1500
     10 C6         -4.1090    4.5080   14.4760 C.ar      1 <0>         0.1170
     11 N2         -3.5860    5.6380   13.8710 N.pl3     1 <0>        -0.5470
     12 C7         -4.1140    6.1940   12.8760 C.2       1 <0>         0.5900
     13 S2         -2.9800    7.1010   12.2290 S.2       1 <0>        -0.3800
     14 O3         -5.4670    6.3830   12.3560 O.3       1 <0>        -0.4300
     15 C8         -6.2050    7.4820   11.6340 C.3       1 <0>         0.2800
     16 C9         -6.7300    6.7080   10.4310 C.3       1 <0>         0.0000
     17 C10        -7.1320    7.8760    9.5140 C.3       1 <0>         0.0000
     18 H1         -5.2330   -0.2001   15.0635 H         1 <0>         0.4200
     19 H2         -4.4640   -0.5990   16.4477 H         1 <0>         0.4200
     20 H3         -2.2533    3.4133   14.5612 H         1 <0>         0.1500
     21 H4         -3.2612    1.5214   15.7787 H         1 <0>         0.1500
     22 H5         -7.0721    3.3948   15.6837 H         1 <0>         0.1500
     23 H6         -6.1200    5.2320   14.3546 H         1 <0>         0.1500
     24 H7         -2.7460    6.0313   14.2447 H         1 <0>         0.3700
     25 H8         -5.5488    8.3172   11.3480 H         1 <0>         0.0000
     26 H9         -6.9814    7.9820   12.2316 H         1 <0>         0.0000
     27 H10        -7.5780    6.0543   10.6832 H         1 <0>         0.0000
     28 H11        -6.0102    6.0037    9.9885 H         1 <0>         0.0000
     29 H12        -7.2279    8.7951   10.1107 H         1 <0>         0.0000
     30 H13        -6.3608    8.0186    8.7427 H         1 <0>         0.0000
     31 H14        -8.0949    7.6494    9.0328 H         1 <0>         0.0000
@<TRIPOS>BOND
     1   16   17 1
     2   15   16 1
     3   14   15 1
     4   12   13 2
     5   12   14 1
     6   11   12 1
     7   10   11 1
     8    9   10 ar
     9    5   10 ar
    10    8    9 ar
    11    5    6 ar
    12    7    8 ar
    13    6    7 ar
    14    1    7 1
    15    1    4 1
    16    1    2 2
    17    1    3 2
    18    4   18 1
    19    4   19 1
    20    5   20 1
    21    6   21 1
    22    8   22 1
    23    9   23 1
    24   11   24 1
    25   15   25 1
    26   15   26 1
    27   16   27 1
    28   16   28 1
    29   17   29 1
    30   17   30 1
    31   17   31 1
