@<TRIPOS>MOLECULE
*****
   52    52     0     0     0
SMALL
USER_CHARGES

@<TRIPOS>ATOM
      1 C1         14.9290   45.5330    0.3130 C.3       1 <0>         0.1382
      2 C2         14.7420   46.4840   -0.8670 C.3       1 <0>         0.0000
      3 C3         14.1140   47.7610   -0.5990 C.3       1 <0>         0.0000
      4 C4         14.7830   48.4660    0.5630 C.3       1 <0>         0.1382
      5 C5         15.0380   47.5680    1.7480 C.2       1 <0>        -0.2764
      6 C6         15.2040   46.2450    1.6380 C.2       1 <0>        -0.1382
      7 C7         15.6250   45.5280    2.8270 C.2       1 <0>        -0.1500
      8 C8         15.7660   44.2050    3.0320 C.2       1 <0>        -0.1500
      9 C9         16.2230   43.5570    4.2460 C.2       1 <0>        -0.1382
     10 C10        16.3900   42.2100    4.1080 C.2       1 <0>        -0.2882
     11 C11        16.9330   41.4120    5.2320 C.3       1 <0>         0.1382
     12 C12        17.1600   40.1000    4.9410 C.3       1 <0>         0.1382
     13 C13        17.4670   39.1050    5.9440 C.2       1 <0>        -0.2764
     14 C14        17.5830   37.8660    5.4040 C.2       1 <0>        -0.2882
     15 C15        17.4150   36.6350    6.1460 C.3       1 <0>         0.1382
     16 C16        13.7030   44.6030    0.4430 C.3       1 <0>         0.0000
     17 C17        16.1470   44.6640   -0.1890 C.3       1 <0>         0.0000
     18 C18        15.2570   48.4210    2.9740 C.3       1 <0>         0.1382
     19 C19        16.5750   44.3480    5.4490 C.3       1 <0>         0.1382
     20 C20        17.8840   39.4780    7.3370 C.3       1 <0>         0.1382
     21 H1         14.1089   45.9635   -1.6007 H         1 <0>         0.0000
     22 H2         15.7607   46.7300   -1.2012 H         1 <0>         0.0000
     23 H3         14.1961   48.3938   -1.4950 H         1 <0>         0.0000
     24 H4         13.0594   47.5847   -0.3408 H         1 <0>         0.0000
     25 H5         15.7507   48.8564    0.2150 H         1 <0>         0.0000
     26 H6         14.0997   49.2602    0.8982 H         1 <0>         0.0000
     27 H7         15.8613   46.1506    3.6772 H         1 <0>         0.1500
     28 H8         15.5120   43.5582    2.2053 H         1 <0>         0.1500
     29 H9         16.1264   41.7255    3.1795 H         1 <0>         0.1500
     30 H10        17.8922   41.8607    5.5297 H         1 <0>         0.0000
     31 H11        16.1722   41.4302    6.0262 H         1 <0>         0.0000
     32 H12        16.2337   39.7484    4.4631 H         1 <0>         0.0000
     33 H13        18.1047   40.1537    4.3801 H         1 <0>         0.0000
     34 H14        17.8159   37.7936    4.3519 H         1 <0>         0.1500
     35 H15        17.3724   35.7874    5.4462 H         1 <0>         0.0000
     36 H16        18.2646   36.5016    6.8319 H         1 <0>         0.0000
     37 H17        16.4802   36.6803    6.7240 H         1 <0>         0.0000
     38 H18        13.5208   44.3819    1.5050 H         1 <0>         0.0000
     39 H19        12.8195   45.0994    0.0152 H         1 <0>         0.0000
     40 H20        13.8955   43.6652   -0.0987 H         1 <0>         0.0000
     41 H21        16.0353   44.4618   -1.2645 H         1 <0>         0.0000
     42 H22        17.0847   45.2120   -0.0146 H         1 <0>         0.0000
     43 H23        16.1700   43.7124    0.3622 H         1 <0>         0.0000
     44 H24        15.3103   47.7773    3.8644 H         1 <0>         0.0000
     45 H25        16.1989   48.9794    2.8685 H         1 <0>         0.0000
     46 H26        14.4213   49.1280    3.0825 H         1 <0>         0.0000
     47 H27        16.6622   43.6776    6.3167 H         1 <0>         0.0000
     48 H28        17.5345   44.8597    5.2833 H         1 <0>         0.0000
     49 H29        15.7894   45.0939    5.6398 H         1 <0>         0.0000
     50 H30        18.9794   39.5692    7.3804 H         1 <0>         0.0000
     51 H31        17.4250   40.4391    7.6120 H         1 <0>         0.0000
     52 H32        17.5532   38.6989    8.0395 H         1 <0>         0.0000
@<TRIPOS>BOND
     1    2    3 1
     2    1    2 1
     3    3    4 1
     4    1   17 1
     5    1   16 1
     6    1    6 1
     7    4    5 1
     8    5    6 2
     9    6    7 1
    10    5   18 1
    11    7    8 2
    12    8    9 1
    13    9   10 2
    14   10   11 1
    15    9   19 1
    16   11   12 1
    17   12   13 1
    18   13   14 2
    19   14   15 1
    20   13   20 1
    21    2   21 1
    22    2   22 1
    23    3   23 1
    24    3   24 1
    25    4   25 1
    26    4   26 1
    27    7   27 1
    28    8   28 1
    29   10   29 1
    30   11   30 1
    31   11   31 1
    32   12   32 1
    33   12   33 1
    34   14   34 1
    35   15   35 1
    36   15   36 1
    37   15   37 1
    38   16   38 1
    39   16   39 1
    40   16   40 1
    41   17   41 1
    42   17   42 1
    43   17   43 1
    44   18   44 1
    45   18   45 1
    46   18   46 1
    47   19   47 1
    48   19   48 1
    49   19   49 1
    50   20   50 1
    51   20   51 1
    52   20   52 1
