@<TRIPOS>MOLECULE
*****
   29    28     0     0     0
SMALL
USER_CHARGES

@<TRIPOS>ATOM
      1 N1         -0.9990  -10.8570   -3.1730 N.4       1 <0>        -0.8530
      2 C1         -1.3290   -9.7530   -4.0900 C.3       1 <0>         0.3970
      3 C2         -0.0730   -9.0420   -4.6660 C.2       1 <0>         0.9060
      4 O1          1.0400   -9.4120   -4.2980 O.co2     1 <0>        -0.9000
      5 O2         -0.2710   -8.0670   -5.5160 O.co2     1 <0>        -0.9000
      6 C3         -2.2620   -8.7380   -3.3580 C.3       1 <0>         0.0000
      7 C4         -1.6160   -8.1000   -2.0860 C.3       1 <0>         0.0610
      8 C5         -2.6540   -7.1290   -1.4580 C.2       1 <0>         0.5690
      9 O3         -3.8230   -7.5070   -1.2360 O.2       1 <0>        -0.5700
     10 N2         -2.1940   -5.8890   -1.1870 N.am      1 <0>        -0.7301
     11 C6         -3.1120   -4.8890   -0.5980 C.3       1 <0>         0.1941
     12 C7         -2.9210   -3.5210   -1.2790 C.2       1 <0>         0.9060
     13 O4         -1.8990   -3.2370   -1.9120 O.co2     1 <0>        -0.9000
     14 C8         -2.8790   -4.7530    0.9290 C.3       1 <0>         0.2300
     15 S1         -1.2510   -4.0660    1.3690 S.3       1 <0>        -0.4100
     16 O5         -3.9270   -2.6170   -1.0950 O.co2     1 <0>        -0.9000
     17 H1         -0.9242  -11.7096   -3.6903 H         1 <0>         0.4500
     18 H2         -0.1286  -10.6648   -2.7198 H         1 <0>         0.4500
     19 H3         -1.7203  -10.9464   -2.4861 H         1 <0>         0.4500
     20 H4         -1.8516  -10.1836   -4.9569 H         1 <0>         0.0000
     21 H5         -2.5050   -7.9279   -4.0613 H         1 <0>         0.0000
     22 H6         -3.1512   -9.2944   -3.0267 H         1 <0>         0.0000
     23 H7         -1.3519   -8.8865   -1.3637 H         1 <0>         0.0000
     24 H8         -0.6984   -7.5564   -2.3552 H         1 <0>         0.0000
     25 H9         -1.2431   -5.6489   -1.3822 H         1 <0>         0.3700
     26 H10        -4.1428   -5.2349   -0.7645 H         1 <0>         0.0000
     27 H11        -3.6517   -4.0822    1.3326 H         1 <0>         0.0000
     28 H12        -2.9256   -5.7669    1.3531 H         1 <0>         0.0000
     29 H13        -0.5433   -3.9023    0.2909 H         1 <0>         0.1800
@<TRIPOS>BOND
     1    3    5 2
     2    3    4 1
     3    2    3 1
     4    2    6 1
     5    1    2 1
     6    6    7 1
     7    7    8 1
     8   12   13 2
     9    8    9 2
    10    8   10 am
    11   12   16 1
    12   11   12 1
    13   10   11 1
    14   11   14 1
    15   14   15 1
    16    1   17 1
    17    1   18 1
    18    1   19 1
    19    2   20 1
    20    6   21 1
    21    6   22 1
    22    7   23 1
    23    7   24 1
    24   10   25 1
    25   11   26 1
    26   14   27 1
    27   14   28 1
    28   15   29 1
