@<TRIPOS>MOLECULE
*****
   49    48     0     0     0
SMALL
USER_CHARGES

@<TRIPOS>ATOM
      1 C1         73.3860   64.0430    5.4200 C.2       1 <0>         0.9060
      2 O1         73.9400   64.2380    4.3200 O.co2     1 <0>        -0.9000
      3 O2         73.9100   64.3690    6.5060 O.co2     1 <0>        -0.9000
      4 C2         72.0120   63.3790    5.4350 C.3       1 <0>        -0.1060
      5 C3         70.8530   64.3710    5.5330 C.3       1 <0>         0.0000
      6 C4         69.5280   63.6260    5.5490 C.3       1 <0>         0.0000
      7 C5         68.3490   64.5710    5.6430 C.3       1 <0>         0.0000
      8 C6         67.0600   63.8390    5.9290 C.3       1 <0>         0.0000
      9 C7         65.8900   64.8000    6.0560 C.3       1 <0>         0.0000
     10 C8         64.6580   64.0880    6.5810 C.3       1 <0>         0.0000
     11 C9         63.7640   63.6210    5.4430 C.3       1 <0>         0.0000
     12 C10        62.8130   62.5400    5.9090 C.3       1 <0>         0.0000
     13 C11        61.8560   62.1400    4.8080 C.3       1 <0>         0.0000
     14 C12        60.9210   61.0490    5.2990 C.3       1 <0>         0.0000
     15 C13        59.9390   60.6160    4.2120 C.3       1 <0>         0.0000
     16 C14        59.0090   59.5060    4.7290 C.3       1 <0>         0.0000
     17 C15        58.0280   59.0150    3.6630 C.3       1 <0>         0.0000
     18 C16        58.5930   57.8460    2.8610 C.3       1 <0>         0.0000
     19 H1         71.8970   62.8101    4.5006 H         1 <0>         0.0000
     20 H2         71.9696   62.7410    6.3301 H         1 <0>         0.0000
     21 H3         70.9523   64.9548    6.4600 H         1 <0>         0.0000
     22 H4         70.8785   65.0424    4.6620 H         1 <0>         0.0000
     23 H5         69.4398   63.0447    4.6193 H         1 <0>         0.0000
     24 H6         69.5138   62.9727    6.4339 H         1 <0>         0.0000
     25 H7         68.5356   65.2862    6.4577 H         1 <0>         0.0000
     26 H8         68.2435   65.0828    4.6750 H         1 <0>         0.0000
     27 H9         66.8577   63.1415    5.1029 H         1 <0>         0.0000
     28 H10        67.1714   63.3014    6.8822 H         1 <0>         0.0000
     29 H11        66.1626   65.6053    6.7540 H         1 <0>         0.0000
     30 H12        65.6621   65.2102    5.0611 H         1 <0>         0.0000
     31 H13        64.0901   64.7822    7.2179 H         1 <0>         0.0000
     32 H14        64.9823   63.2066    7.1537 H         1 <0>         0.0000
     33 H15        64.3937   63.2193    4.6355 H         1 <0>         0.0000
     34 H16        63.1739   64.4778    5.0856 H         1 <0>         0.0000
     35 H17        62.2338   62.9196    6.7637 H         1 <0>         0.0000
     36 H18        63.4026   61.6570    6.1965 H         1 <0>         0.0000
     37 H19        62.4295   61.7658    3.9472 H         1 <0>         0.0000
     38 H20        61.2617   63.0168    4.5114 H         1 <0>         0.0000
     39 H21        60.3508   61.4324    6.1580 H         1 <0>         0.0000
     40 H22        61.5283   60.1765    5.5818 H         1 <0>         0.0000
     41 H23        60.5043   60.2372    3.3477 H         1 <0>         0.0000
     42 H24        59.3276   61.4831    3.9216 H         1 <0>         0.0000
     43 H25        58.4312   59.9033    5.5765 H         1 <0>         0.0000
     44 H26        59.6379   58.6528    5.0231 H         1 <0>         0.0000
     45 H27        57.8149   59.8445    2.9727 H         1 <0>         0.0000
     46 H28        57.1157   58.6703    4.1719 H         1 <0>         0.0000
     47 H29        58.7289   58.1513    1.8130 H         1 <0>         0.0000
     48 H30        59.5631   57.5461    3.2841 H         1 <0>         0.0000
     49 H31        57.8941   56.9978    2.9078 H         1 <0>         0.0000
@<TRIPOS>BOND
     1   17   18 1
     2   16   17 1
     3   15   16 1
     4   14   15 1
     5    1    2 2
     6   13   14 1
     7   12   13 1
     8    1    4 1
     9    1    3 1
    10    4    5 1
    11   11   12 1
    12   10   11 1
    13    5    6 1
    14    6    7 1
    15    7    8 1
    16    8    9 1
    17    9   10 1
    18    4   19 1
    19    4   20 1
    20    5   21 1
    21    5   22 1
    22    6   23 1
    23    6   24 1
    24    7   25 1
    25    7   26 1
    26    8   27 1
    27    8   28 1
    28    9   29 1
    29    9   30 1
    30   10   31 1
    31   10   32 1
    32   11   33 1
    33   11   34 1
    34   12   35 1
    35   12   36 1
    36   13   37 1
    37   13   38 1
    38   14   39 1
    39   14   40 1
    40   15   41 1
    41   15   42 1
    42   16   43 1
    43   16   44 1
    44   17   45 1
    45   17   46 1
    46   18   47 1
    47   18   48 1
    48   18   49 1
