@<TRIPOS>MOLECULE
*****
   32    33     0     0     0
SMALL
USER_CHARGES

@<TRIPOS>ATOM
      1 C1         -4.8240   21.5300    8.5420 C.2       1 H4B1427     0.5600
      2 C2         -3.0960   23.1940    7.8270 C.2       1 H4B1427     0.6156
      3 C3         -4.1900   24.0690    7.4850 C.2       1 H4B1427     0.1144
      4 C4         -5.5330   23.6800    7.6490 C.2       1 H4B1427     0.2710
      5 C5         -5.0190   26.4600    7.1620 C.3       1 H4B1427     0.3691
      6 C6         -6.3730   25.8470    6.7490 C.3       1 H4B1427     0.3691
      7 C7         -4.5330   27.7710    6.4370 C.3       1 H4B1427     0.2800
      8 C8         -5.5210   28.9940    6.5360 C.3       1 H4B1427     0.2800
      9 C9         -5.8050   29.4250    7.9370 C.3       1 H4B1427     0.0000
     10 N1         -5.8020   22.4160    8.1870 N.2       1 H4B1427    -0.6210
     11 N2         -5.0820   20.3210    9.0470 N.pl3     1 H4B1427    -0.8500
     12 N3         -3.5240   21.9290    8.3720 N.am      1 H4B1427    -0.4900
     13 N4         -3.9030   25.4090    6.9150 N.pl3     1 H4B1427    -0.8691
     14 N5         -6.5680   24.4850    7.3240 N.pl3     1 H4B1427    -0.8691
     15 O1         -1.8860   23.4120    7.7360 O.2       1 H4B1427    -0.5700
     16 O2         -4.2840   27.5580    5.0420 O.3       1 H4B1427    -0.6800
     17 O3         -6.7240   28.6470    5.8410 O.3       1 H4B1427    -0.6800
     18 H1         -5.1465   19.6555    8.3034 H         1 H4B1427     0.4000
     19 H2         -4.3452   20.0555    9.6688 H         1 H4B1427     0.4000
     20 H3         -2.8096   21.2869    8.6501 H         1 H4B1427     0.3700
     21 H4         -3.7918   25.3052    5.9266 H         1 H4B1427     0.4000
     22 H5         -7.0707   24.6272    8.1767 H         1 H4B1427     0.4000
     23 H6         -5.1956   26.7456    8.2095 H         1 H4B1427     0.0000
     24 H7         -7.1801   26.5006    7.1117 H         1 H4B1427     0.0000
     25 H8         -6.3878   25.7598    5.6526 H         1 H4B1427     0.0000
     26 H9         -3.6104   28.0188    6.9823 H         1 H4B1427     0.0000
     27 H10        -5.1105   27.5109    4.5759 H         1 H4B1427     0.4000
     28 H11        -5.0394   29.8662    6.0698 H         1 H4B1427     0.0000
     29 H12        -5.8748   28.5399    8.5864 H         1 H4B1427     0.0000
     30 H13        -4.9929   30.0767    8.2917 H         1 H4B1427     0.0000
     31 H14        -6.7566   29.9760    7.9650 H         1 H4B1427     0.0000
     32 H15        -7.4384   28.5702    6.4625 H         1 H4B1427     0.4000
@<TRIPOS>BOND
     1    7   16 1
     2    8   17 1
     3    7    8 1
     4    5    7 1
     5    8    9 1
     6    5    6 1
     7    6   14 1
     8    5   13 1
     9    3   13 1
    10    4   14 1
    11    3    4 2
    12    2    3 1
    13    4   10 1
    14    2   15 2
    15    2   12 am
    16    1   10 2
    17    1   12 1
    18    1   11 1
    19   11   18 1
    20   11   19 1
    21   12   20 1
    22   13   21 1
    23   14   22 1
    24    5   23 1
    25    6   24 1
    26    6   25 1
    27    7   26 1
    28   16   27 1
    29    8   28 1
    30    9   29 1
    31    9   30 1
    32    9   31 1
    33   17   32 1
