@<TRIPOS>MOLECULE
*****
   18    17     0     0     0
SMALL
USER_CHARGES

@<TRIPOS>ATOM
      1 C1         13.3940   10.7290   26.3970 C.2       1 <0>         0.9060
      2 O1         13.9330   10.1520   25.4040 O.co2     1 <0>        -0.9000
      3 O2         14.3070   11.1280   27.4210 O.co2     1 <0>        -0.9000
      4 C2         11.9170   10.9930   26.6570 C.3       1 <0>        -0.1060
      5 C3         11.0580    9.8890   25.9710 C.3       1 <0>         0.1740
      6 O3         11.4980    9.6390   24.5940 O.3       1 <0>        -0.6800
      7 C4          9.5830   10.2250   25.6880 C.3       1 <0>        -0.1060
      8 C5          8.6530    9.0450   25.8800 C.2       1 <0>         0.9060
      9 O4          8.6440    7.9910   25.2370 O.co2     1 <0>        -0.9000
     10 O5          7.6630    9.1340   26.8320 O.co2     1 <0>        -0.9000
     11 C6         11.3200    8.5080   26.6540 C.2       1 <0>         0.9060
     12 O6         11.3590    8.5160   27.9420 O.co2     1 <0>        -0.9000
     13 O7         11.5890    7.2480   26.0530 O.co2     1 <0>        -0.9000
     14 H1         11.6438   11.9763   26.2466 H         1 <0>         0.0000
     15 H2         11.7296   10.9799   27.7408 H         1 <0>         0.0000
     16 H3         10.7401    9.5850   24.0238 H         1 <0>         0.4000
     17 H4          9.5010   10.5613   24.6439 H         1 <0>         0.0000
     18 H5          9.2799   11.0019   26.4053 H         1 <0>         0.0000
@<TRIPOS>BOND
     1    5    6 1
     2    8    9 2
     3    1    2 2
     4    7    8 1
     5    5    7 1
     6    8   10 1
     7    5   11 1
     8    4    5 1
     9   11   13 2
    10    1    4 1
    11    1    3 1
    12   11   12 1
    13    4   14 1
    14    4   15 1
    15    6   16 1
    16    7   17 1
    17    7   18 1
