@<TRIPOS>MOLECULE
*****
   16    17     0     0     0
SMALL
USER_CHARGES

@<TRIPOS>ATOM
      1 N1         14.5790   -5.0920   39.7710 N.pl3     1 <0>        -0.6534
      2 C1         15.7880   -4.9720   40.2970 C.cat     1 <0>         0.5588
      3 N2         16.2330   -3.7300   40.4180 N.pl3     1 <0>        -0.6534
      4 C2         15.3140   -2.9930   39.6370 C.ar      1 <0>         0.3490
      5 C3         15.0800   -1.5990   39.4160 C.ar      1 <0>         0.4100
      6 N3         15.9480   -0.6110   39.6220 N.pl3     1 <0>        -0.9000
      7 N4         13.8960   -1.2390   38.9200 N.ar      1 <0>        -0.6200
      8 C4         13.0100   -2.1400   38.6290 C.ar      1 <0>         0.4700
      9 N5         13.1140   -3.4920   38.6900 N.ar      1 <0>        -0.6200
     10 C5         14.3070   -3.8450   39.2290 C.ar      1 <0>         0.6590
     11 H1         12.0920   -1.7100   38.2770 H         1 <0>         0.1500
     12 H2         16.3100   -5.8600   40.6270 H         1 <0>         0.1500
     13 H3         13.8500   -5.6850   40.1060 H         1 <0>         0.4500
     14 H4         16.8420   -0.8700   40.0340 H         1 <0>         0.4000
     15 H5         15.7850    0.3440   39.3390 H         1 <0>         0.4000
     16 H6         17.0225   -3.3969   40.9335 H         1 <0>         0.4500
@<TRIPOS>BOND
     1    8   11 1
     2    8    9 ar
     3    7    8 ar
     4    9   10 ar
     5    5    7 ar
     6    4   10 ar
     7    1   10 1
     8    6   15 1
     9    5    6 1
    10    4    5 ar
    11    6   14 1
    12    3    4 1
    13    1   13 1
    14    1    2 1
    15    2    3 1
    16    2   12 1
    17    3   16 1
