@<TRIPOS>MOLECULE
*****
   50    52     0     0     0
SMALL
USER_CHARGES

@<TRIPOS>ATOM
      1 N1         10.3280   21.1370   14.0020 N.4       1 <0>        -0.8530
      2 C1          9.6530   19.9080   13.7450 C.3       1 <0>         0.3970
      3 C2          8.5250   20.1480   12.8000 C.2       1 <0>         0.9060
      4 O1          7.9850   21.2690   12.7990 O.co2     1 <0>        -0.9000
      5 O2          8.1380   19.2260   12.0450 O.co2     1 <0>        -0.9000
      6 C3          9.0320   19.3040   15.0140 C.3       1 <0>         0.0000
      7 C4          8.0740   18.1370   14.7390 C.3       1 <0>         0.1935
      8 S1          8.9850   16.6500   14.2270 S.3       1 <0>        -0.5805
      9 C5          7.6870   15.5760   13.6340 C.3       1 <0>         0.1935
     10 C6          9.5100   15.7820   15.7920 C.3       1 <0>         0.1935
     11 C7          8.3490   15.0600   16.5580 C.3       1 <0>         0.2800
     12 O3          8.0080   13.7450   16.0150 O.3       1 <0>        -0.5600
     13 C8          8.6590   14.8280   18.0390 C.3       1 <0>         0.2800
     14 O4          8.4400   16.0260   18.8090 O.3       1 <0>        -0.6800
     15 C9          7.7610   13.6230   18.3880 C.3       1 <0>         0.2800
     16 O5          6.4200   13.9850   18.6630 O.3       1 <0>        -0.6800
     17 C10         7.7580   12.7850   17.1030 C.3       1 <0>         0.5356
     18 N2          8.8640   11.7820   17.0370 N.pl3     1 <0>         0.0476
     19 C11        10.0120   11.9170   16.3090 C.2       1 <0>         0.0365
     20 N3         10.8350   10.9120   16.4110 N.2       1 <0>        -0.5653
     21 C12        10.1800   10.0390   17.2650 C.ar      1 <0>         0.2272
     22 C13        10.5340    8.7140   17.7430 C.ar      1 <0>         0.4100
     23 N4         11.6390    8.0660   17.3670 N.pl3     1 <0>        -0.9000
     24 N5          9.6310    8.1470   18.5450 N.ar      1 <0>        -0.6200
     25 C14         8.4890    8.7530   18.8620 C.ar      1 <0>         0.4700
     26 N6          8.0660    9.9590   18.4720 N.ar      1 <0>        -0.5670
     27 C15         8.9680   10.5540   17.6700 C.ar      1 <0>         0.1054
     28 H1         10.4861   21.2318   14.9849 H         1 <0>         0.4500
     29 H2         11.2050   21.1423   13.5215 H         1 <0>         0.4500
     30 H3          9.7664   21.8991   13.6799 H         1 <0>         0.4500
     31 H4         10.4060   19.2177   13.3370 H         1 <0>         0.0000
     32 H5          9.8490   18.9320   15.6496 H         1 <0>         0.0000
     33 H6          8.4432   20.0988   15.4953 H         1 <0>         0.0000
     34 H7          7.3812   18.4258   13.9349 H         1 <0>         0.0000
     35 H8          7.5239   17.9098   15.6641 H         1 <0>         0.0000
     36 H9          6.9893   15.3552   14.4552 H         1 <0>         0.0000
     37 H10         7.1449   16.0733   12.8162 H         1 <0>         0.0000
     38 H11         8.1275   14.6379   13.2653 H         1 <0>         0.0000
     39 H12        10.2574   15.0220   15.5205 H         1 <0>         0.0000
     40 H13         9.8979   16.5585   16.4677 H         1 <0>         0.0000
     41 H14         7.5084   15.7579   16.4307 H         1 <0>         0.0000
     42 H15         9.7101   14.6013   18.2712 H         1 <0>         0.0000
     43 H16         8.3918   15.8055   19.7318 H         1 <0>         0.4000
     44 H17         8.1405   13.1158   19.2873 H         1 <0>         0.0000
     45 H18         6.2996   14.0661   19.6018 H         1 <0>         0.4000
     46 H19         6.8070   12.2352   17.0461 H         1 <0>         0.0000
     47 H20        10.2200   12.7842   15.6999 H         1 <0>         0.1500
     48 H21        11.6116    7.9040   16.3806 H         1 <0>         0.4000
     49 H22        12.4418    8.6182   17.5918 H         1 <0>         0.4000
     50 H23         7.8245    8.2039   19.5126 H         1 <0>         0.1500
@<TRIPOS>BOND
     1    3    5 2
     2    3    4 1
     3    2    3 1
     4    8    9 1
     5    1    2 1
     6    2    6 1
     7    7    8 1
     8    8   10 1
     9    6    7 1
    10   10   11 1
    11   11   12 1
    12   12   17 1
    13   19   20 2
    14   18   19 1
    15   20   21 1
    16   11   13 1
    17   17   18 1
    18   18   27 1
    19   15   17 1
    20   21   27 ar
    21   21   22 ar
    22   22   23 1
    23   26   27 ar
    24   22   24 ar
    25   13   15 1
    26   13   14 1
    27   15   16 1
    28   25   26 ar
    29   24   25 ar
    30    1   28 1
    31    1   29 1
    32    1   30 1
    33    2   31 1
    34    6   32 1
    35    6   33 1
    36    7   34 1
    37    7   35 1
    38    9   36 1
    39    9   37 1
    40    9   38 1
    41   10   39 1
    42   10   40 1
    43   11   41 1
    44   13   42 1
    45   14   43 1
    46   15   44 1
    47   16   45 1
    48   17   46 1
    49   19   47 1
    50   23   48 1
    51   23   49 1
    52   25   50 1
