@<TRIPOS>MOLECULE
*****
   86    91     0     0     0
SMALL
USER_CHARGES

@<TRIPOS>ATOM
      1 P1         21.7340    0.7440   23.2100 P.3       1 <0>         1.4424
      2 O1         21.2790   -0.5500   22.6220 O.2       1 <0>        -0.9500
      3 O2         21.1100    2.0050   22.7070 O.3       1 <0>        -0.9500
      4 O3         21.5360    0.5940   24.7810 O.3       1 <0>        -0.5512
      5 C1         21.8040    1.6440   25.7340 C.3       1 <0>         0.2800
      6 C2         20.9750    1.3220   26.9450 C.3       1 <0>         0.2800
      7 O4         21.4400    2.2150   28.0160 O.3       1 <0>        -0.5600
      8 C3         19.4550    1.5870   26.8050 C.3       1 <0>         0.2800
      9 O5         18.6690    0.5190   27.3030 O.3       1 <0>        -0.6800
     10 C4         19.2540    2.8850   27.6020 C.3       1 <0>         0.2800
     11 O6         17.9430    3.1030   28.1250 O.3       1 <0>        -0.6800
     12 C5         20.3140    2.7950   28.6820 C.3       1 <0>         0.7940
     13 N1         20.7430    4.0350   29.2580 N.pl3     1 <0>        -0.7640
     14 C6         21.1360    5.1460   28.5940 C.cat     1 <0>         0.6500
     15 N2         21.5860    6.0940   29.3810 N.pl3     1 <0>        -0.7000
     16 C7         21.4970    5.5490   30.6610 C.ar      1 <0>         0.3090
     17 C8         21.8060    6.0770   31.9310 C.ar      1 <0>         0.4510
     18 N3         22.3520    7.2970   32.0970 N.pl3     1 <0>        -0.9000
     19 N4         21.5450    5.2940   33.0020 N.ar      1 <0>        -0.6200
     20 C9         20.9960    4.1160   32.7940 C.ar      1 <0>         0.4700
     21 N5         20.6530    3.4920   31.6590 N.ar      1 <0>        -0.5790
     22 C10        20.9520    4.3000   30.6060 C.ar      1 <0>         0.6190
     23 O7         23.3220    0.9150   23.0430 O.3       1 <0>        -0.5424
     24 N6         21.1300   -2.2060   14.3280 N.am      1 <0>        -0.5470
     25 C11        21.3810   -3.3130   13.6420 C.2       1 <0>         0.6900
     26 O8         22.5370   -3.8380   13.5830 O.2       1 <0>        -0.5700
     27 N7         20.3550   -4.0320   13.0400 N.am      1 <0>        -0.4900
     28 C12        19.0610   -3.5490   12.9230 C.2       1 <0>         0.5438
     29 O9         18.1950   -4.2180   12.3430 O.2       1 <0>        -0.5700
     30 C13        18.8630   -2.2780   13.4780 C.ar      1 <0>         0.3962
     31 N8         17.6080   -1.6500   13.3270 N.ar      1 <0>        -0.6200
     32 C14        17.3710   -0.5210   14.1190 C.ar      1 <0>         0.3100
     33 C15        16.1150    0.0870   14.0580 C.ar      1 <0>        -0.1500
     34 C16        15.7540    1.0970   14.8970 C.ar      1 <0>        -0.1435
     35 C17        14.3640    1.7040   14.8070 C.3       1 <0>         0.1435
     36 C18        16.6370    1.5140   15.8730 C.ar      1 <0>        -0.1435
     37 C19        16.2910    2.5870   16.8810 C.3       1 <0>         0.1435
     38 C20        17.9320    0.9020   15.9330 C.ar      1 <0>        -0.1500
     39 C21        18.3100   -0.0510   15.0390 C.ar      1 <0>         0.3610
     40 N9         19.6220   -0.6130   15.0250 N.ar      1 <0>        -0.2100
     41 C22        19.8950   -1.7170   14.2570 C.ar      1 <0>         0.4780
     42 C23        20.7140   -0.0150   15.8050 C.3       1 <0>         0.4880
     43 C24        21.0300   -0.8140   17.0860 C.3       1 <0>         0.2800
     44 O10        19.8060   -1.0850   17.7790 O.3       1 <0>        -0.6800
     45 C25        21.9980    0.0070   17.9330 C.3       1 <0>         0.2800
     46 O11        23.1520    0.2290   17.1170 O.3       1 <0>        -0.6800
     47 C26        22.4120   -0.7380   19.2160 C.3       1 <0>         0.2800
     48 O12        21.2460   -1.0260   19.9860 O.3       1 <0>        -0.6800
     49 C27        23.3780    0.1150   20.0100 C.3       1 <0>         0.2800
     50 O13        23.8410   -0.6620   21.1400 O.3       1 <0>        -0.5512
     51 P2         24.5150    0.0670   22.3740 P.3       1 <0>         1.4424
     52 O14        24.9610   -0.9890   23.2970 O.3       1 <0>        -0.9500
     53 O15        25.4900    1.0960   21.9070 O.2       1 <0>        -0.9500
     54 H1         21.5490    2.5250   25.3610 H         1 <0>         0.0000
     55 H2         22.7660    1.6640   25.9660 H         1 <0>         0.0000
     56 H3         21.1270    0.3710   27.2130 H         1 <0>         0.0000
     57 H4         19.2320    1.7480   25.8440 H         1 <0>         0.0000
     58 H5         17.8570    0.6750   27.1510 H         1 <0>         0.4000
     59 H6         19.4830    3.6540   27.0060 H         1 <0>         0.0000
     60 H7         17.6750    2.4070   28.5100 H         1 <0>         0.4000
     61 H8         20.0020    2.1800   29.4070 H         1 <0>         0.0000
     62 H9         21.0910    5.2320   27.6490 H         1 <0>         0.1500
     63 H10        21.8770    6.8920   29.1530 H         1 <0>         0.4500
     64 H11        22.5420    7.5890   32.9050 H         1 <0>         0.4000
     65 H12        22.5200    7.8030   31.3960 H         1 <0>         0.4000
     66 H13        20.8100    3.6230   33.5850 H         1 <0>         0.1500
     67 H14        20.5350   -4.8310   12.7180 H         1 <0>         0.3700
     68 H15        15.4910   -0.2140   13.4080 H         1 <0>         0.1500
     69 H16        13.8530    1.2500   14.1050 H         1 <0>         0.0000
     70 H17        14.4370    2.6580   14.5930 H         1 <0>         0.0000
     71 H18        13.9050    1.5970   15.6670 H         1 <0>         0.0000
     72 H19        16.3300    3.4660   16.4490 H         1 <0>         0.0000
     73 H20        16.9320    2.5590   17.6220 H         1 <0>         0.0000
     74 H21        15.3860    2.4320   17.2250 H         1 <0>         0.0000
     75 H22        18.5400    1.1680   16.6130 H         1 <0>         0.1500
     76 H23        20.4650    0.9110   16.0540 H         1 <0>         0.0000
     77 H24        21.5280    0.0310   15.2430 H         1 <0>         0.0000
     78 H25        21.4650   -1.6790   16.8350 H         1 <0>         0.0000
     79 H26        19.3410   -0.3870   17.8100 H         1 <0>         0.4000
     80 H27        21.5800    0.8830   18.1720 H         1 <0>         0.0000
     81 H28        23.5960    0.8700   17.4300 H         1 <0>         0.4000
     82 H29        22.8610   -1.5960   18.9660 H         1 <0>         0.0000
     83 H30        21.1920   -0.4840   20.6250 H         1 <0>         0.4000
     84 H31        24.1440    0.3790   19.4410 H         1 <0>         0.0000
     85 H32        22.9250    0.9370   20.3250 H         1 <0>         0.0000
     86 H33        21.8380   -1.7587   14.8745 H         1 <0>         0.3700
@<TRIPOS>BOND
     1   28   29 2
     2   27   67 1
     3   27   28 am
     4   28   30 1
     5   25   27 am
     6   30   31 ar
     7   31   32 ar
     8   33   68 1
     9   30   41 ar
    10   25   26 2
    11   24   25 am
    12   32   33 ar
    13   33   34 ar
    14   35   69 1
    15   32   39 ar
    16   24   41 1
    17   40   41 ar
    18   35   70 1
    19   34   35 1
    20   35   71 1
    21   34   36 ar
    22   39   40 ar
    23   40   42 1
    24   38   39 ar
    25   42   77 1
    26   42   76 1
    27   42   43 1
    28   36   38 ar
    29   36   37 1
    30   38   75 1
    31   37   72 1
    32   43   78 1
    33   37   74 1
    34   37   73 1
    35   43   44 1
    36   43   45 1
    37   46   81 1
    38   45   46 1
    39   44   79 1
    40   45   80 1
    41   45   47 1
    42   47   82 1
    43   47   48 1
    44   47   49 1
    45   49   84 1
    46   48   83 1
    47   49   85 1
    48   49   50 1
    49   50   51 1
    50   51   53 2
    51   23   51 1
    52   51   52 1
    53    1    2 2
    54    1    3 1
    55    1   23 1
    56    1    4 1
    57    4    5 1
    58    5   54 1
    59    5   55 1
    60    5    6 1
    61    8   57 1
    62    6    8 1
    63    8    9 1
    64    8   10 1
    65    6   56 1
    66    6    7 1
    67   10   59 1
    68    9   58 1
    69   10   11 1
    70   10   12 1
    71   14   62 1
    72    7   12 1
    73   11   60 1
    74   13   14 2
    75   14   15 1
    76   12   13 1
    77   12   61 1
    78   15   63 1
    79   13   22 1
    80   15   16 1
    81   16   22 ar
    82   21   22 ar
    83   16   17 ar
    84   18   65 1
    85   20   21 ar
    86   17   18 1
    87   17   19 ar
    88   18   64 1
    89   19   20 ar
    90   20   66 1
    91   24   86 1
