@<TRIPOS>MOLECULE
*****
   66    70     0     0     0
SMALL
USER_CHARGES

@<TRIPOS>ATOM
      1 N1         84.0960  144.5100  151.5490 N.am      1 <0>        -0.4691
      2 C1         82.9670  144.3860  152.2730 C.2       1 <0>         0.8410
      3 N2         82.8860  143.3780  153.1450 N.2       1 <0>        -0.6610
      4 C2         83.8450  142.4670  153.2180 C.2       1 <0>         0.4856
      5 C3         84.9770  142.5300  152.3750 C.2       1 <0>        -0.1356
      6 C4         85.0920  143.5610  151.5990 C.2       1 <0>        -0.0410
      7 O1         82.0200  145.1410  152.1040 O.2       1 <0>        -0.5700
      8 N3         83.8600  141.5120  154.1380 N.pl3     1 <0>        -0.8500
      9 C5         84.3290  145.7430  150.7810 C.3       1 <0>         0.5801
     10 C6         85.4480  146.5500  151.4240 C.3       1 <0>         0.2800
     11 O2         84.9220  147.3540  152.4430 O.3       1 <0>        -0.6800
     12 C7         86.0390  147.2870  150.2900 C.3       1 <0>         0.2800
     13 C8         85.8670  146.2740  149.1580 C.3       1 <0>         0.2800
     14 O3         84.7810  145.3950  149.5410 O.3       1 <0>        -0.5600
     15 O4         85.2870  148.4810  150.0740 O.3       1 <0>        -0.6800
     16 C9         87.0670  145.4540  148.8700 C.3       1 <0>         0.2800
     17 O5         87.6980  145.0900  150.1010 O.3       1 <0>        -0.5512
     18 P1         88.8210  143.9570  150.2120 P.3       1 <0>         1.4424
     19 O6         89.3720  144.1350  151.5570 O.3       1 <0>        -0.9500
     20 O7         88.2640  142.6750  149.8060 O.2       1 <0>        -0.9500
     21 O8         89.8860  144.3290  149.1080 O.3       1 <0>        -0.5424
     22 P2         90.8210  145.5890  148.9460 P.3       1 <0>         1.4424
     23 O9         92.0700  145.3390  149.6630 O.3       1 <0>        -0.9500
     24 O10        90.0280  146.7990  149.2520 O.2       1 <0>        -0.9500
     25 O11        91.0320  145.5950  147.4320 O.3       1 <0>        -0.5512
     26 C10        92.1160  144.8930  146.8070 C.3       1 <0>         0.2800
     27 C11        91.5710  143.9950  145.7340 C.3       1 <0>         0.4182
     28 C12        92.6440  143.4750  144.8840 C.2       1 <0>        -0.0372
     29 S1         94.1420  142.9630  145.6840 S.3       1 <0>        -0.2810
     30 C13        92.5620  143.4970  143.5700 C.2       1 <0>        -0.0372
     31 S2         94.0070  143.0180  142.6120 S.3       1 <0>        -0.2810
     32 C14        91.6000  144.1830  142.9140 C.3       1 <0>         0.3842
     33 C15        90.2980  144.1450  143.7540 C.3       1 <0>         0.5260
     34 O12        90.6650  144.7690  144.9620 O.3       1 <0>        -0.5600
     35 N4         91.8390  145.4300  142.4210 N.2       1 <0>        -0.6960
     36 C16        90.8060  146.3180  142.2090 C.2       1 <0>         0.4500
     37 N5         89.2180  144.8790  143.2080 N.2       1 <0>        -0.6960
     38 C17        89.5260  146.0110  142.5540 C.2       1 <0>         0.6610
     39 N6         88.4550  146.7900  142.2320 N.2       1 <0>        -0.6610
     40 C18        88.7020  147.9830  141.6950 C.2       1 <0>         0.5600
     41 N7         87.7030  148.8380  141.4040 N.pl3     1 <0>        -0.8500
     42 N8         89.9600  148.3650  141.4590 N.am      1 <0>        -0.4900
     43 C19        91.0710  147.5740  141.6450 C.2       1 <0>         0.6300
     44 O13        92.1940  147.9880  141.3890 O.2       1 <0>        -0.5700
     45 H1         85.7202  141.7464  152.3774 H         1 <0>         0.1500
     46 H2         85.9747  143.6767  150.9876 H         1 <0>         0.1500
     47 H3         83.8638  140.6176  153.6907 H         1 <0>         0.4000
     48 H4         84.6803  141.6058  154.7022 H         1 <0>         0.4000
     49 H5         83.3946  146.3223  150.7440 H         1 <0>         0.0000
     50 H6         86.2239  145.9566  151.9299 H         1 <0>         0.0000
     51 H7         84.8029  146.8330  153.2284 H         1 <0>         0.4000
     52 H8         87.0821  147.6136  150.4138 H         1 <0>         0.0000
     53 H9         85.6704  146.8403  148.2357 H         1 <0>         0.0000
     54 H10        85.1199  148.9057  150.9072 H         1 <0>         0.4000
     55 H11        86.7693  144.5450  148.3267 H         1 <0>         0.0000
     56 H12        87.7697  146.0336  148.2534 H         1 <0>         0.0000
     57 H13        92.6453  144.2890  147.5587 H         1 <0>         0.0000
     58 H14        92.8162  145.6158  146.3627 H         1 <0>         0.0000
     59 H15        91.0672  143.1273  146.1850 H         1 <0>         0.0000
     60 H16        95.0858  142.8377  144.7988 H         1 <0>         0.1800
     61 H17        93.6785  142.9025  141.3595 H         1 <0>         0.1800
     62 H18        91.5324  143.6349  141.9627 H         1 <0>         0.0000
     63 H19        89.9425  143.1066  143.8277 H         1 <0>         0.0000
     64 H20        87.1918  149.0499  142.2369 H         1 <0>         0.4000
     65 H21        88.0854  149.6804  141.0244 H         1 <0>         0.4000
     66 H22        90.1055  149.2952  141.1220 H         1 <0>         0.3700
@<TRIPOS>BOND
     1   43   44 2
     2   40   41 1
     3   42   43 am
     4   40   42 1
     5   36   43 1
     6   39   40 2
     7   35   36 2
     8   36   38 1
     9   38   39 1
    10   32   35 1
    11   37   38 2
    12   30   31 1
    13   30   32 1
    14   32   33 1
    15   33   37 1
    16   28   30 2
    17   33   34 1
    18   28   29 1
    19   27   28 1
    20   27   34 1
    21   26   27 1
    22   25   26 1
    23   22   25 1
    24   13   16 1
    25   16   17 1
    26   21   22 1
    27   22   24 2
    28   22   23 1
    29   18   21 1
    30   13   14 1
    31   12   13 1
    32    9   14 1
    33   18   20 2
    34   12   15 1
    35   17   18 1
    36   18   19 1
    37   10   12 1
    38    9   10 1
    39    1    9 1
    40   10   11 1
    41    1    6 1
    42    1    2 am
    43    5    6 2
    44    2    7 2
    45    2    3 1
    46    4    5 1
    47    3    4 2
    48    4    8 1
    49    5   45 1
    50    6   46 1
    51    8   47 1
    52    8   48 1
    53    9   49 1
    54   10   50 1
    55   11   51 1
    56   12   52 1
    57   13   53 1
    58   15   54 1
    59   16   55 1
    60   16   56 1
    61   26   57 1
    62   26   58 1
    63   27   59 1
    64   29   60 1
    65   31   61 1
    66   32   62 1
    67   33   63 1
    68   41   64 1
    69   41   65 1
    70   42   66 1
