@<TRIPOS>MOLECULE
*****
    7     6     0     0     0
SMALL
USER_CHARGES

@<TRIPOS>ATOM
      1 C1         36.7970   35.6310   17.3340 C.2       1 <0>         0.8400
      2 O1         35.4740   36.8030   15.4710 O.2       1 <0>        -1.0333
      3 O2         37.4360   38.0660   16.2930 O.3       1 <0>        -1.0333
      4 O3         35.4310   37.8150   17.7760 O.3       1 <0>        -1.0333
      5 O4         37.5800   35.5780   18.3440 O.co2     1 <0>        -0.9000
      6 O5         36.3700   34.5430   16.8120 O.co2     1 <0>        -0.9000
      7 P1         36.2520   37.2150   16.6880 P.3       1 <0>         1.0600
@<TRIPOS>BOND
     1    1    5 2
     2    1    6 1
     3    1    7 1
     4    2    7 2
     5    3    7 1
     6    4    7 1
