@<TRIPOS>MOLECULE
*****
   51    53     0     0     0
SMALL
USER_CHARGES

@<TRIPOS>ATOM
      1 N1         15.9670   32.4900   41.8920 N.am      1 <0>        -0.5470
      2 C1         16.9610   33.3810   42.3110 C.2       1 <0>         0.6900
      3 O1         17.9440   33.5950   41.7040 O.2       1 <0>        -0.5700
      4 N2         16.6700   34.1060   43.5420 N.am      1 <0>        -0.4900
      5 C2         15.5680   33.9770   44.3350 C.2       1 <0>         0.5438
      6 O2         15.3460   34.5980   45.3800 O.2       1 <0>        -0.5700
      7 C3         14.5540   32.9890   43.9520 C.ar      1 <0>         0.3962
      8 N3         13.3770   32.7920   44.4830 N.ar      1 <0>        -0.6200
      9 C4         12.3470   32.1140   43.9010 C.ar      1 <0>         0.3100
     10 C5         11.0040   32.2590   44.4270 C.ar      1 <0>        -0.1500
     11 C6          9.9130   31.6890   43.7530 C.ar      1 <0>        -0.1435
     12 C7          8.5120   31.8030   44.3130 C.3       1 <0>         0.1435
     13 C8         10.1070   30.9960   42.4970 C.ar      1 <0>        -0.1435
     14 C9          9.0060   30.3080   41.7300 C.3       1 <0>         0.1435
     15 C10        11.4060   30.8550   41.9690 C.ar      1 <0>        -0.1500
     16 C11        12.5840   31.4040   42.6030 C.ar      1 <0>         0.3610
     17 N4         13.9070   31.4910   42.0960 N.ar      1 <0>        -0.2100
     18 C12        14.9240   32.3170   42.6950 C.ar      1 <0>         0.4780
     19 C13        14.1790   30.7910   40.7400 C.3       1 <0>         0.4880
     20 C14        14.0410   29.3120   41.0750 C.3       1 <0>         0.2800
     21 O3         15.2640   28.7040   41.6530 O.3       1 <0>        -0.6800
     22 C15        13.8690   28.3640   39.7970 C.3       1 <0>         0.2800
     23 O4         12.5520   28.8390   39.2860 O.3       1 <0>        -0.6800
     24 C16        13.8690   26.8400   39.6440 C.3       1 <0>         0.2800
     25 O5         15.2400   26.5150   40.1490 O.3       1 <0>        -0.6800
     26 C17        13.5970   26.1320   38.2950 C.3       1 <0>         0.2800
     27 O6         14.3950   26.9110   37.3700 O.3       1 <0>        -0.5512
     28 P1         13.7540   27.6690   36.1160 P.3       1 <0>         1.3712
     29 O7         12.9050   26.7060   35.3400 O.3       1 <0>        -1.0333
     30 O8         14.9960   28.0810   35.3310 O.2       1 <0>        -1.0333
     31 O9         12.9100   28.8380   36.6790 O.3       1 <0>        -1.0333
     32 H1         16.0393   32.0026   41.0218 H         1 <0>         0.3700
     33 H2         17.3547   34.7721   43.8378 H         1 <0>         0.3700
     34 H3         10.8422   32.8086   45.3425 H         1 <0>         0.1500
     35 H4          8.5569   31.8307   45.4117 H         1 <0>         0.0000
     36 H5          8.0430   32.7263   43.9420 H         1 <0>         0.0000
     37 H6          7.9175   30.9348   43.9923 H         1 <0>         0.0000
     38 H7          8.1452   30.1405   42.3940 H         1 <0>         0.0000
     39 H8          8.6986   30.9400   40.8838 H         1 <0>         0.0000
     40 H9          9.3711   29.3415   41.3526 H         1 <0>         0.0000
     41 H10        11.5278   30.3097   41.0448 H         1 <0>         0.1500
     42 H11        15.1828   31.0271   40.3570 H         1 <0>         0.0000
     43 H12        13.4911   31.1156   39.9454 H         1 <0>         0.0000
     44 H13        13.1734   29.3453   41.7503 H         1 <0>         0.0000
     45 H14        15.9082   28.5740   40.9669 H         1 <0>         0.4000
     46 H15        14.8642   28.4717   39.3409 H         1 <0>         0.0000
     47 H16        11.9478   28.9401   40.0121 H         1 <0>         0.4000
     48 H17        12.9802   26.4553   40.1656 H         1 <0>         0.0000
     49 H18        15.8400   26.4461   39.4157 H         1 <0>         0.4000
     50 H19        12.5293   26.1481   38.0307 H         1 <0>         0.0000
     51 H20        13.8554   25.0628   38.3024 H         1 <0>         0.0000
@<TRIPOS>BOND
     1   28   30 2
     2   28   29 1
     3   28   31 1
     4   27   28 1
     5   26   27 1
     6   24   26 1
     7   22   23 1
     8   22   24 1
     9   24   25 1
    10   20   22 1
    11   19   20 1
    12   17   19 1
    13   20   21 1
    14    2    3 2
    15   13   14 1
    16    1    2 am
    17    1   18 1
    18   13   15 ar
    19   15   16 ar
    20   16   17 ar
    21   17   18 ar
    22    2    4 am
    23   11   13 ar
    24    9   16 ar
    25    7   18 ar
    26    4    5 am
    27   11   12 1
    28   10   11 ar
    29    9   10 ar
    30    8    9 ar
    31    5    7 1
    32    7    8 ar
    33    5    6 2
    34    1   32 1
    35    4   33 1
    36   10   34 1
    37   12   35 1
    38   12   36 1
    39   12   37 1
    40   14   38 1
    41   14   39 1
    42   14   40 1
    43   15   41 1
    44   19   42 1
    45   19   43 1
    46   20   44 1
    47   21   45 1
    48   22   46 1
    49   23   47 1
    50   24   48 1
    51   25   49 1
    52   26   50 1
    53   26   51 1
