@<TRIPOS>MOLECULE
*****
   45    47     0     0     0
SMALL
USER_CHARGES

@<TRIPOS>ATOM
      1 P1         14.3010   51.3580   70.4120 P.3       1 <0>         1.4380
      2 O1         13.0320   51.2550   71.2240 O.3       1 <0>        -1.0333
      3 O2         14.5270   50.0750   69.6540 O.2       1 <0>        -1.0333
      4 O3         15.4710   51.6650   71.2360 O.3       1 <0>        -1.0333
      5 N1         13.9470   52.6360   69.3160 N.pl3     1 <0>        -1.0960
      6 P2         15.0480   53.1590   68.1320 P.3       1 <0>         1.5092
      7 O4         16.0810   53.9930   68.7520 O.3       1 <0>        -0.9500
      8 O5         15.4650   51.9350   67.3950 O.2       1 <0>        -0.9500
      9 O6         14.1310   54.0840   67.2220 O.3       1 <0>        -0.5424
     10 P3         13.4300   53.7290   65.9010 P.3       1 <0>         1.4424
     11 O7         14.4230   53.4800   64.8260 O.2       1 <0>        -0.9500
     12 O8         12.4300   52.6390   66.2500 O.3       1 <0>        -0.9500
     13 O9         12.6910   55.0190   65.5550 O.3       1 <0>        -0.5512
     14 C1         11.6310   55.5580   66.4130 C.3       1 <0>         0.2800
     15 C2         10.7950   56.5610   65.6560 C.3       1 <0>         0.2800
     16 O10        11.4760   57.6740   65.1810 O.3       1 <0>        -0.5600
     17 C3         10.1130   55.9370   64.4020 C.3       1 <0>         0.2800
     18 O11         8.7410   56.3740   64.2790 O.3       1 <0>        -0.6800
     19 C4         10.9760   56.4560   63.2480 C.3       1 <0>         0.2800
     20 O12        10.3430   56.4810   62.0030 O.3       1 <0>        -0.6800
     21 C5         11.3310   57.8210   63.7760 C.3       1 <0>         0.5356
     22 N2         12.6250   58.2750   63.2180 N.pl3     1 <0>         0.0476
     23 C6         13.8800   57.5200   63.3590 C.2       1 <0>         0.0365
     24 N3         14.8660   58.1440   62.7750 N.2       1 <0>        -0.5653
     25 C7         14.2450   59.3760   62.2160 C.2       1 <0>         0.1412
     26 C8         14.8680   60.4550   61.4610 C.2       1 <0>         0.7160
     27 O13        15.9880   60.5800   61.1350 O.2       1 <0>        -0.5700
     28 N4         13.9370   61.4360   61.1190 N.am      1 <0>        -0.4900
     29 C9         12.6190   61.2810   61.5090 C.2       1 <0>         0.5600
     30 N5         11.8540   62.4050   61.0480 N.pl3     1 <0>        -0.8500
     31 N6         11.9890   60.3620   62.1710 N.2       1 <0>        -0.5760
     32 C10        12.9080   59.4000   62.5060 C.2       1 <0>        -0.0256
     33 H1         13.7770   53.4367   69.8904 H         1 <0>         0.4200
     34 H2         10.9862   54.7330   66.7501 H         1 <0>         0.0000
     35 H3         12.0927   56.0593   67.2764 H         1 <0>         0.0000
     36 H4         10.0730   56.8747   66.4243 H         1 <0>         0.0000
     37 H5         10.0583   54.8389   64.4374 H         1 <0>         0.0000
     38 H6          8.3600   56.4699   65.1439 H         1 <0>         0.4000
     39 H7         11.8359   55.8113   63.0137 H         1 <0>         0.0000
     40 H8          9.4010   56.4867   62.1262 H         1 <0>         0.4000
     41 H9         10.5584   58.5548   63.5027 H         1 <0>         0.0000
     42 H10        13.9726   56.5764   63.8762 H         1 <0>         0.1500
     43 H11        14.2191   62.2417   60.5981 H         1 <0>         0.3700
     44 H12        11.6761   63.0240   61.8130 H         1 <0>         0.4000
     45 H13        12.3674   62.8895   60.3397 H         1 <0>         0.4000
@<TRIPOS>BOND
     1   29   30 1
     2   26   28 am
     3   28   29 1
     4   26   27 2
     5   25   26 1
     6   29   31 2
     7   19   20 1
     8   31   32 1
     9   25   32 2
    10   24   25 1
    11   22   32 1
    12   23   24 2
    13   22   23 1
    14   21   22 1
    15   19   21 1
    16   17   19 1
    17   16   21 1
    18   17   18 1
    19   15   17 1
    20   10   11 2
    21   15   16 1
    22   10   13 1
    23   13   14 1
    24   14   15 1
    25   10   12 1
    26    9   10 1
    27    6    9 1
    28    6    8 2
    29    6    7 1
    30    5    6 1
    31    1    5 1
    32    1    3 2
    33    1    2 1
    34    1    4 1
    35    5   33 1
    36   14   34 1
    37   14   35 1
    38   15   36 1
    39   17   37 1
    40   18   38 1
    41   19   39 1
    42   20   40 1
    43   21   41 1
    44   23   42 1
    45   28   43 1
    46   30   44 1
    47   30   45 1
