@<TRIPOS>MOLECULE
*****
   73    77     0     0     0
SMALL
USER_CHARGES

@<TRIPOS>ATOM
      1 P1         14.6050   48.1930   36.9540 P.3       1 <0>         1.4424
      2 O1         14.7050   46.9620   36.1050 O.2       1 <0>        -0.9500
      3 O2         15.6550   48.3720   37.9900 O.3       1 <0>        -0.9500
      4 O3         14.5220   49.5300   36.0580 O.3       1 <0>        -0.5512
      5 C1         13.4810   49.7340   35.1220 C.3       1 <0>         0.2800
      6 C2         13.6970   51.0580   34.4170 C.3       1 <0>         0.2800
      7 O4         13.3890   52.1230   35.3220 O.3       1 <0>        -0.5600
      8 C3         15.1250   51.3190   33.9420 C.3       1 <0>         0.2800
      9 O5         15.0630   51.7490   32.6060 O.3       1 <0>        -0.6800
     10 C4         15.6630   52.4140   34.8520 C.3       1 <0>         0.2800
     11 O6         16.5330   53.3390   34.2410 O.3       1 <0>        -0.5512
     12 C5         14.3860   53.1210   35.2040 C.3       1 <0>         0.5356
     13 N1         14.3490   53.8250   36.5000 N.pl3     1 <0>         0.0476
     14 C6         14.7230   53.3360   37.7190 C.2       1 <0>         0.0365
     15 N2         14.4420   54.2800   38.6550 N.2       1 <0>        -0.5653
     16 C7         13.8600   55.3370   38.0280 C.ar      1 <0>         0.2272
     17 C8         13.4050   56.5770   38.5010 C.ar      1 <0>         0.4100
     18 N3         13.2930   56.8830   39.8120 N.pl3     1 <0>        -0.9000
     19 N4         12.9080   57.4550   37.5680 N.ar      1 <0>        -0.6200
     20 C9         12.8880   57.1820   36.2220 C.ar      1 <0>         0.4700
     21 N5         13.3070   55.9620   35.7640 N.ar      1 <0>        -0.5670
     22 C10        13.8220   55.0740   36.6640 C.ar      1 <0>         0.1054
     23 O7         13.0840   48.2410   37.5400 O.3       1 <0>        -0.5424
     24 P2         12.4550   47.5650   38.8530 P.3       1 <0>         1.4424
     25 O8         12.7050   48.4700   39.9880 O.3       1 <0>        -0.9500
     26 O9         11.0700   47.2620   38.4780 O.2       1 <0>        -0.9500
     27 O10        13.2790   46.2230   39.0520 O.3       1 <0>        -0.5512
     28 C11        12.9800   45.0880   38.2560 C.3       1 <0>         0.2800
     29 C12        13.9870   43.9960   38.5480 C.3       1 <0>         0.2800
     30 O11        13.8740   43.6280   39.9090 O.3       1 <0>        -0.5600
     31 C13        13.7140   42.7310   37.7230 C.3       1 <0>         0.2800
     32 O12        14.9240   42.1310   37.2840 O.3       1 <0>        -0.6800
     33 C14        12.9910   41.8540   38.7150 C.3       1 <0>         0.2800
     34 O13        13.0340   40.4470   38.4650 O.3       1 <0>        -0.6800
     35 C15        13.6780   42.2270   40.0220 C.3       1 <0>         0.7680
     36 N6         12.9560   41.8620   41.2690 N.ar      1 <0>        -0.2100
     37 C16        13.7010   41.5270   42.3650 C.ar      1 <0>         0.2110
     38 C17        13.0960   41.1140   43.5500 C.ar      1 <0>         0.0862
     39 C18        13.9260   40.8930   44.7760 C.2       1 <0>         0.5438
     40 O14        13.3830   40.5190   46.0030 O.2       1 <0>        -0.5700
     41 N7         15.2280   41.0980   44.7220 N.am      1 <0>        -0.8000
     42 C19        11.6980   41.1040   43.6360 C.ar      1 <0>        -0.1500
     43 C20        10.9400   41.4930   42.5240 C.ar      1 <0>        -0.1500
     44 C21        11.5930   41.8190   41.3400 C.ar      1 <0>         0.2110
     45 P3         18.1170   53.1690   34.3970 P.3       1 <0>         1.3712
     46 O15        18.4940   51.8110   33.9310 O.3       1 <0>        -1.0333
     47 O16        18.6550   54.2860   33.4980 O.2       1 <0>        -1.0333
     48 O17        18.4660   53.3760   35.8800 O.3       1 <0>        -1.0333
     49 H1         12.5133   49.7487   35.6448 H         1 <0>         0.0000
     50 H2         13.4825   48.9181   34.3842 H         1 <0>         0.0000
     51 H3         13.0468   51.0114   33.5309 H         1 <0>         0.0000
     52 H4         15.7742   50.4321   33.9857 H         1 <0>         0.0000
     53 H5         15.0490   52.6985   32.5788 H         1 <0>         0.4000
     54 H6         16.2658   51.9949   35.6711 H         1 <0>         0.0000
     55 H7         14.2548   53.8776   34.4164 H         1 <0>         0.0000
     56 H8         15.1647   52.3684   37.9063 H         1 <0>         0.1500
     57 H9         13.2653   56.0406   40.3502 H         1 <0>         0.4000
     58 H10        14.0791   57.4329   40.0941 H         1 <0>         0.4000
     59 H11        12.5415   57.9303   35.5246 H         1 <0>         0.1500
     60 H12        13.0308   45.3609   37.1916 H         1 <0>         0.0000
     61 H13        11.9671   44.7288   38.4905 H         1 <0>         0.0000
     62 H14        14.9838   44.3881   38.2977 H         1 <0>         0.0000
     63 H15        13.1418   42.9176   36.8023 H         1 <0>         0.0000
     64 H16        14.8888   41.9970   36.3442 H         1 <0>         0.4000
     65 H17        11.9059   42.0324   38.6859 H         1 <0>         0.0000
     66 H18        13.0435   40.2916   37.5278 H         1 <0>         0.4000
     67 H19        14.6070   41.6493   40.1371 H         1 <0>         0.0000
     68 H20        14.7782   41.5835   42.3113 H         1 <0>         0.1500
     69 H21        15.6182   40.9038   45.6220 H         1 <0>         0.3700
     70 H22        15.7390   41.3974   43.9163 H         1 <0>         0.3700
     71 H23        11.2096   40.7996   44.5499 H         1 <0>         0.1500
     72 H24         9.8627   41.5392   42.5853 H         1 <0>         0.1500
     73 H25        11.0101   42.0427   40.4588 H         1 <0>         0.1500
@<TRIPOS>BOND
     1    8    9 1
     2   45   47 2
     3   45   46 1
     4    6    8 1
     5    8   10 1
     6   11   45 1
     7   10   11 1
     8   45   48 1
     9    5    6 1
    10    6    7 1
    11   10   12 1
    12    4    5 1
    13    7   12 1
    14   12   13 1
    15   20   21 ar
    16   21   22 ar
    17    1    4 1
    18    1    2 2
    19   19   20 ar
    20   13   22 1
    21   13   14 1
    22   16   22 ar
    23    1   23 1
    24    1    3 1
    25   31   32 1
    26   23   24 1
    27   17   19 ar
    28   14   15 2
    29   29   31 1
    30   31   33 1
    31   16   17 ar
    32   15   16 1
    33   28   29 1
    34   27   28 1
    35   33   34 1
    36   24   26 2
    37   17   18 1
    38   29   30 1
    39   33   35 1
    40   24   27 1
    41   24   25 1
    42   30   35 1
    43   35   36 1
    44   36   44 ar
    45   36   37 ar
    46   43   44 ar
    47   37   38 ar
    48   42   43 ar
    49   38   42 ar
    50   38   39 1
    51   39   41 am
    52   39   40 2
    53    5   49 1
    54    5   50 1
    55    6   51 1
    56    8   52 1
    57    9   53 1
    58   10   54 1
    59   12   55 1
    60   14   56 1
    61   18   57 1
    62   18   58 1
    63   20   59 1
    64   28   60 1
    65   28   61 1
    66   29   62 1
    67   31   63 1
    68   32   64 1
    69   33   65 1
    70   34   66 1
    71   35   67 1
    72   37   68 1
    73   41   69 1
    74   41   70 1
    75   42   71 1
    76   43   72 1
    77   44   73 1
