@<TRIPOS>MOLECULE
*****
   16    17     0     0     0
SMALL
USER_CHARGES

@<TRIPOS>ATOM
      1 N1         13.2620   52.2780   83.0260 N.pl3     1 <0>         0.0332
      2 C1         13.0480   53.3310   82.1650 C.2       1 <0>        -0.3016
      3 C2         13.3490   53.0180   80.8390 C.2       1 <0>        -0.1500
      4 C3         14.2010   50.8260   79.9400 C.ar      1 <0>        -0.1500
      5 C4         14.5860   49.5310   80.2830 C.ar      1 <0>        -0.1500
      6 C5         14.5310   49.0900   81.6060 C.ar      1 <0>        -0.1500
      7 C6         14.0990   49.9110   82.6500 C.ar      1 <0>        -0.1500
      8 C7         13.7150   51.2050   82.3500 C.ar      1 <0>        -0.1516
      9 C8         13.7700   51.6600   80.9610 C.ar      1 <0>         0.0000
     10 H1         13.1036   52.3060   84.0130 H         1 <0>         0.2700
     11 H2         12.6853   54.2974   82.4826 H         1 <0>         0.1500
     12 H3         13.2815   53.6374   79.9569 H         1 <0>         0.1500
     13 H4         14.2370   51.1677   78.9161 H         1 <0>         0.1500
     14 H5         14.9324   48.8581   79.5126 H         1 <0>         0.1500
     15 H6         14.8333   48.0778   81.8305 H         1 <0>         0.1500
     16 H7         14.0657   49.5446   83.6654 H         1 <0>         0.1500
@<TRIPOS>BOND
     1    1    2 1
     2    1    8 1
     3    2    3 2
     4    3    9 1
     5    4    5 ar
     6    4    9 ar
     7    5    6 ar
     8    6    7 ar
     9    7    8 ar
    10    8    9 ar
    11    1   10 1
    12    2   11 1
    13    3   12 1
    14    4   13 1
    15    5   14 1
    16    6   15 1
    17    7   16 1
