@<TRIPOS>MOLECULE
*****
   36    37     0     0     0
SMALL
USER_CHARGES

@<TRIPOS>ATOM
      1 N1          2.9110   13.4620   43.3940 N.am      1 <0>        -0.4691
      2 C1          2.9800   14.4150   42.4030 C.2       1 <0>         0.6900
      3 N2          2.5840   15.7020   42.7390 N.am      1 <0>        -0.4900
      4 C2          2.0300   16.1210   43.9600 C.2       1 <0>         0.6156
      5 C3          2.0080   15.0790   45.0520 C.2       1 <0>        -0.1356
      6 C4          2.4250   13.7400   44.6830 C.2       1 <0>        -0.0410
      7 O1          3.3450   14.1160   41.2580 O.2       1 <0>        -0.5700
      8 O2          1.7880   17.2820   44.1840 O.2       1 <0>        -0.5700
      9 C5          3.2220   12.0420   42.9710 C.3       1 <0>         0.5801
     10 C6          4.7460   11.9030   42.7400 C.3       1 <0>         0.2800
     11 O3          4.9780   10.7830   41.8690 O.3       1 <0>        -0.6800
     12 C7          5.2200   11.5450   44.1420 C.3       1 <0>         0.2800
     13 C8          4.1130   10.6340   44.6700 C.3       1 <0>         0.2800
     14 O4          2.8970   11.1780   44.0670 O.3       1 <0>        -0.5600
     15 O5          6.5140   10.9300   44.1210 O.3       1 <0>        -0.6800
     16 C9          3.9490   10.4950   46.1960 C.3       1 <0>         0.2800
     17 O6          4.0870   11.7940   46.8300 O.3       1 <0>        -0.5512
     18 P1          5.4430   12.1400   47.5740 P.3       1 <0>         1.4424
     19 O7          6.5890   11.4690   46.8800 O.2       1 <0>        -0.9500
     20 O8          5.5000   13.6330   47.6920 O.3       1 <0>        -0.9500
     21 O9          5.2210   11.4840   49.0360 O.3       1 <0>        -0.5424
     22 P2          6.4570   11.1790   50.0790 P.3       1 <0>         1.3712
     23 O10         7.2350   10.0170   49.4660 O.2       1 <0>        -1.0333
     24 O11         5.7310   10.7820   51.3380 O.3       1 <0>        -1.0333
     25 O12         7.2830   12.4370   50.1560 O.3       1 <0>        -1.0333
     26 H1          2.7058   16.4049   42.0383 H         1 <0>         0.3700
     27 H2          1.6971   15.3188   46.0581 H         1 <0>         0.1500
     28 H3          2.3611   12.9440   45.4101 H         1 <0>         0.1500
     29 H4          2.6593   11.7923   42.0594 H         1 <0>         0.0000
     30 H5          5.2340   12.7840   42.2976 H         1 <0>         0.0000
     31 H6          5.0292   11.0857   40.9700 H         1 <0>         0.4000
     32 H7          5.3668   12.4187   44.7940 H         1 <0>         0.0000
     33 H8          4.3646    9.5988   44.3962 H         1 <0>         0.0000
     34 H9          6.7859   10.7939   43.2210 H         1 <0>         0.4000
     35 H10         2.9527   10.0856   46.4189 H         1 <0>         0.0000
     36 H11         4.7259    9.8193   46.5831 H         1 <0>         0.0000
@<TRIPOS>BOND
     1    2    7 2
     2   10   11 1
     3    2    3 am
     4    1    2 am
     5    3    4 am
     6    9   10 1
     7   10   12 1
     8    1    9 1
     9    9   14 1
    10    1    6 1
    11    4    8 2
    12    4    5 1
    13   13   14 1
    14   12   15 1
    15   12   13 1
    16   13   16 1
    17    5    6 2
    18   16   17 1
    19   17   18 1
    20   18   19 2
    21   18   20 1
    22   18   21 1
    23   21   22 1
    24   22   23 2
    25   22   25 1
    26   22   24 1
    27    3   26 1
    28    5   27 1
    29    6   28 1
    30    9   29 1
    31   10   30 1
    32   11   31 1
    33   12   32 1
    34   13   33 1
    35   15   34 1
    36   16   35 1
    37   16   36 1
