@<TRIPOS>MOLECULE
*****
   13    12     0     0     0
SMALL
USER_CHARGES

@<TRIPOS>ATOM
      1 C1         26.4560   51.5030  -19.7890 C.2       1 <0>         0.9060
      2 O1         27.5790   51.9060  -19.2570 O.co2     1 <0>        -0.9000
      3 O2         26.2650   51.7920  -21.0480 O.co2     1 <0>        -0.9000
      4 C2         25.3990   50.7210  -19.0700 C.3       1 <0>         0.1740
      5 O3         25.7640   50.4390  -17.7350 O.3       1 <0>        -0.6800
      6 C3         24.0990   51.5140  -19.0320 C.3       1 <0>        -0.1060
      7 C4         22.8880   50.6700  -18.7350 C.2       1 <0>         0.9060
      8 O4         22.8860   49.3760  -18.9180 O.co2     1 <0>        -0.9000
      9 O5         21.7950   51.2010  -18.2860 O.co2     1 <0>        -0.9000
     10 H1         25.2753   49.7762  -19.6197 H         1 <0>         0.0000
     11 H2         26.7098   50.3757  -17.6714 H         1 <0>         0.4000
     12 H3         24.1862   52.2769  -18.2443 H         1 <0>         0.0000
     13 H4         23.9545   51.9501  -20.0315 H         1 <0>         0.0000
@<TRIPOS>BOND
     1    1    2 2
     2    1    3 1
     3    1    4 1
     4    4    5 1
     5    4    6 1
     6    6    7 1
     7    7    8 2
     8    7    9 1
     9    4   10 1
    10    5   11 1
    11    6   12 1
    12    6   13 1
