@<TRIPOS>MOLECULE
*****
   27    27     0     0     0
SMALL
USER_CHARGES

@<TRIPOS>ATOM
      1 C1        -48.1630  -14.2520   16.3570 C.3       1 <0>         0.5600
      2 C2        -47.9010  -15.7370   16.2310 C.3       1 <0>         0.2800
      3 C3        -47.1380  -16.0580   14.9430 C.3       1 <0>         0.2800
      4 C4        -48.0040  -15.6380   13.7490 C.3       1 <0>         0.2800
      5 C5        -48.4070  -14.1690   13.8610 C.3       1 <0>         0.2800
      6 C6        -49.4590  -13.7730   12.7850 C.3       1 <0>         0.2800
      7 O1        -46.9340  -13.5380   16.3790 O.3       1 <0>        -0.5512
      8 O2        -47.1650  -16.2350   17.3830 O.3       1 <0>        -0.6800
      9 O3        -46.8910  -17.4600   14.8820 O.3       1 <0>        -0.6800
     10 O4        -47.2680  -15.7860   12.5420 O.3       1 <0>        -0.6800
     11 O5        -48.9370  -13.8100   15.1880 O.3       1 <0>        -0.5600
     12 P1        -46.3090  -12.9250   17.7380 P.3       1 <0>         1.3712
     13 O6        -45.9110  -14.0960   18.6000 O.3       1 <0>        -1.0333
     14 O7        -47.3150  -12.0540   18.4230 O.3       1 <0>        -1.0333
     15 O8        -45.1070  -12.1880   17.2690 O.2       1 <0>        -1.0333
     16 O9        -50.4750  -14.7020   13.0930 O.3       1 <0>        -0.6800
     17 H1        -48.7149  -14.0594   17.2888 H         1 <0>         0.0000
     18 H2        -48.8776  -16.2416   16.1913 H         1 <0>         0.0000
     19 H3        -46.1794  -15.5188   14.9216 H         1 <0>         0.0000
     20 H4        -48.8996  -16.2767   13.7460 H         1 <0>         0.0000
     21 H5        -47.4746  -13.6090   13.6969 H         1 <0>         0.0000
     22 H6        -49.0803  -13.8785   11.7576 H         1 <0>         0.0000
     23 H7        -49.7726  -12.7189   12.8102 H         1 <0>         0.0000
     24 H8        -46.2499  -16.3435   17.1520 H         1 <0>         0.4000
     25 H9        -46.8360  -17.7331   13.9738 H         1 <0>         0.4000
     26 H10       -47.8684  -15.8190   11.8065 H         1 <0>         0.4000
     27 H11       -50.4436  -14.9108   14.0192 H         1 <0>         0.4000
@<TRIPOS>BOND
     1    4   10 1
     2    6   16 1
     3    5    6 1
     4    4    5 1
     5    3    4 1
     6    5   11 1
     7    3    9 1
     8    2    3 1
     9    1   11 1
    10    1    2 1
    11    2    8 1
    12    1    7 1
    13    7   12 1
    14   12   15 2
    15   12   14 1
    16   12   13 1
    17    1   17 1
    18    2   18 1
    19    3   19 1
    20    4   20 1
    21    5   21 1
    22    6   22 1
    23    6   23 1
    24    8   24 1
    25    9   25 1
    26   10   26 1
    27   16   27 1
