@<TRIPOS>MOLECULE
*****
   14    14     0     0     0
SMALL
USER_CHARGES

@<TRIPOS>ATOM
      1 N1          9.4490   40.7280   42.4160 N.am      1 <0>        -0.5390
      2 C1          9.5470   41.3030   41.2220 C.2       1 <0>         0.6900
      3 O1          8.8740   42.3890   40.9760 O.2       1 <0>        -0.5700
      4 N2         10.3050   40.7990   40.2750 N.am      1 <0>        -0.7301
      5 C2         11.0760   39.5770   40.3730 C.3       1 <0>         0.7183
      6 O2         10.5110   38.5940   39.4250 O.3       1 <0>        -0.6800
      7 C3         11.0130   39.0290   41.7250 C.2       1 <0>        -0.2882
      8 C4         10.2430   39.5720   42.6570 C.2       1 <0>        -0.0410
      9 H1          8.8397   41.0942   43.1193 H         1 <0>         0.3700
     10 H2         10.3539   41.3023   39.4123 H         1 <0>         0.3700
     11 H3         12.1280   39.7930   40.1349 H         1 <0>         0.0000
     12 H4         10.3898   39.0047   38.5770 H         1 <0>         0.4000
     13 H5         11.6074   38.1615   41.9711 H         1 <0>         0.1500
     14 H6         10.2171   39.1196   43.6374 H         1 <0>         0.1500
@<TRIPOS>BOND
     1    1    2 am
     2    1    8 1
     3    2    3 2
     4    2    4 am
     5    4    5 1
     6    5    6 1
     7    5    7 1
     8    7    8 2
     9    1    9 1
    10    4   10 1
    11    5   11 1
    12    6   12 1
    13    7   13 1
    14    8   14 1
