@<TRIPOS>MOLECULE
*****
   20    19     0     0     0
SMALL
USER_CHARGES

@<TRIPOS>ATOM
      1 O1         15.7340   10.3010   21.4800 O.co2     1 <0>        -0.9000
      2 C1         15.1450   11.1180   20.7660 C.2       1 <0>         0.9060
      3 O2         15.2910   12.3260   20.8660 O.co2     1 <0>        -0.9000
      4 C2         14.1730   10.5800   19.7190 C.3       1 <0>         0.3970
      5 N1         14.5760    9.1980   19.5810 N.4       1 <0>        -0.8530
      6 C3         12.7170   10.7160   20.1790 C.3       1 <0>         0.0000
      7 C4         11.7110   10.1970   19.1550 C.3       1 <0>         0.2300
      8 S1         10.0510   10.4190   19.8130 S.3       1 <0>        -0.4600
      9 C5          9.0030    9.9710   18.3920 C.3       1 <0>         0.9100
     10 F1          9.4220    8.8060   17.8960 F         1 <0>        -0.3400
     11 F2          9.1340   10.9110   17.4520 F         1 <0>        -0.3400
     12 H1         14.2098   11.1300   18.7671 H         1 <0>         0.0000
     13 H2         14.6690    8.9727   18.6112 H         1 <0>         0.4500
     14 H3         15.4530    9.0592   20.0409 H         1 <0>         0.4500
     15 H4         13.8845    8.6064   19.9956 H         1 <0>         0.4500
     16 H5         12.5936   10.1376   21.1065 H         1 <0>         0.0000
     17 H6         12.5165   11.7880   20.3225 H         1 <0>         0.0000
     18 H7         11.8157   10.7578   18.2145 H         1 <0>         0.0000
     19 H8         11.8954    9.1309   18.9562 H         1 <0>         0.0000
     20 H9          7.9520    9.8900   18.7065 H         1 <0>         0.0000
@<TRIPOS>BOND
     1    1    2 2
     2    2    3 1
     3    2    4 1
     4    4    5 1
     5    4    6 1
     6    6    7 1
     7    7    8 1
     8    8    9 1
     9    9   10 1
    10    9   11 1
    11    4   12 1
    12    5   13 1
    13    5   14 1
    14    5   15 1
    15    6   16 1
    16    6   17 1
    17    7   18 1
    18    7   19 1
    19    9   20 1
