@<TRIPOS>MOLECULE
*****
   79    80     0     0     0
SMALL
USER_CHARGES

@<TRIPOS>ATOM
      1 C1         69.0450   87.2880   55.9780 C.2       1 <0>        -0.0615
      2 C2         69.9650   86.5960   55.2040 C.2       1 <0>        -0.1238
      3 C3         71.3270   86.2340   55.6950 C.3       1 <0>         0.1382
      4 C4         69.6120   86.1830   53.7950 C.2       1 <0>         0.4694
      5 C5         68.2370   86.5880   53.3430 C.ar      1 <0>         0.0862
      6 C6         67.7070   86.3020   52.0130 C.ar      1 <0>         0.0825
      7 C7         68.1750   85.3100   49.8360 C.3       1 <0>         0.2800
      8 C8         66.3780   86.7160   51.6570 C.ar      1 <0>        -0.1500
      9 C9         65.5520   87.4100   52.6080 C.ar      1 <0>         0.0825
     10 C10        63.6610   87.6800   51.0840 C.3       1 <0>         0.2800
     11 C11        66.0570   87.7010   53.9230 C.ar      1 <0>         0.0825
     12 C12        67.3720   87.2940   54.2510 C.ar      1 <0>         0.0825
     13 C13        69.1730   87.8400   57.3520 C.3       1 <0>         0.1382
     14 C14        69.2720   86.9240   58.5100 C.3       1 <0>         0.0000
     15 C15        68.9320   87.7520   59.7600 C.3       1 <0>         0.0000
     16 C16        68.8910   86.8930   61.0400 C.3       1 <0>         0.2800
     17 C17        67.7740   85.8160   61.0230 C.3       1 <0>         0.0000
     18 C18        67.8010   85.0230   62.3600 C.3       1 <0>         0.4182
     19 C19        67.0870   83.7160   62.2160 C.2       1 <0>        -0.2882
     20 C20        65.9020   83.4200   62.7430 C.2       1 <0>        -0.1500
     21 C21        65.2480   82.1750   62.5000 C.2       1 <0>        -0.1500
     22 C22        64.0550   81.8960   63.0410 C.2       1 <0>        -0.1500
     23 C23        63.2660   80.6860   62.8220 C.2       1 <0>        -0.1382
     24 C24        62.1030   80.5470   63.4940 C.2       1 <0>        -0.2882
     25 C25        61.1560   79.4090   63.4170 C.3       1 <0>         0.1382
     26 C26        69.9220   88.9060   59.9610 C.3       1 <0>         0.0000
     27 C27        70.8840   86.5680   62.3880 C.3       1 <0>         0.2800
     28 C28        66.4000   86.4650   60.7610 C.3       1 <0>         0.0000
     29 C29        67.7750   85.6880   64.6680 C.3       1 <0>         0.2800
     30 C30        63.7810   79.6630   61.8680 C.3       1 <0>         0.1382
     31 O1         67.7780   87.6390   55.5360 O.3       1 <0>        -0.1592
     32 O2         70.4240   85.5760   53.0790 O.2       1 <0>        -0.5700
     33 O3         68.5870   85.6280   51.1700 O.3       1 <0>        -0.3625
     34 O4         64.2530   87.8520   52.3790 O.3       1 <0>        -0.3625
     35 O5         65.2250   88.3730   54.8070 O.3       1 <0>        -0.5325
     36 O6         70.1600   86.2140   61.2100 O.3       1 <0>        -0.5600
     37 O7         67.2320   85.8850   63.3710 O.3       1 <0>        -0.5600
     38 H1         72.0138   86.1449   54.8404 H         1 <0>         0.0000
     39 H2         71.6906   87.0165   56.3773 H         1 <0>         0.0000
     40 H3         71.2806   85.2736   56.2293 H         1 <0>         0.0000
     41 H4         67.0786   85.2285   49.7999 H         1 <0>         0.0000
     42 H5         68.5062   86.1044   49.1510 H         1 <0>         0.0000
     43 H6         68.6238   84.3527   49.5323 H         1 <0>         0.0000
     44 H7         65.9968   86.5047   50.6688 H         1 <0>         0.1500
     45 H8         62.5664   87.6360   51.1836 H         1 <0>         0.0000
     46 H9         63.9366   88.5278   50.4395 H         1 <0>         0.0000
     47 H10        64.0260   86.7442   50.6356 H         1 <0>         0.0000
     48 H11        70.0962   88.4381   57.3560 H         1 <0>         0.0000
     49 H12        68.2174   88.3605   57.5132 H         1 <0>         0.0000
     50 H13        68.5648   86.0887   58.3995 H         1 <0>         0.0000
     51 H14        70.2810   86.4924   58.5858 H         1 <0>         0.0000
     52 H15        67.9270   88.1626   59.5829 H         1 <0>         0.0000
     53 H16        68.6823   87.5861   61.8683 H         1 <0>         0.0000
     54 H17        67.9543   85.1071   60.2014 H         1 <0>         0.0000
     55 H18        68.8257   84.7542   62.6561 H         1 <0>         0.0000
     56 H19        67.5752   82.9477   61.6348 H         1 <0>         0.1500
     57 H20        65.4176   84.1477   63.3773 H         1 <0>         0.1500
     58 H21        65.7253   81.4422   61.8663 H         1 <0>         0.1500
     59 H22        63.6352   82.6380   63.7040 H         1 <0>         0.1500
     60 H23        61.8333   81.3530   64.1604 H         1 <0>         0.1500
     61 H24        60.9214   79.1971   62.3634 H         1 <0>         0.0000
     62 H25        61.6129   78.5202   63.8766 H         1 <0>         0.0000
     63 H26        60.2308   79.6653   63.9539 H         1 <0>         0.0000
     64 H27        70.1590   89.0044   61.0306 H         1 <0>         0.0000
     65 H28        70.8446   88.6996   59.3987 H         1 <0>         0.0000
     66 H29        69.4724   89.8419   59.5978 H         1 <0>         0.0000
     67 H30        71.9537   86.6591   62.1481 H         1 <0>         0.0000
     68 H31        70.5115   87.5290   62.7722 H         1 <0>         0.0000
     69 H32        70.7449   85.7886   63.1517 H         1 <0>         0.0000
     70 H33        65.8786   86.6195   61.7172 H         1 <0>         0.0000
     71 H34        66.5419   87.4340   60.2601 H         1 <0>         0.0000
     72 H35        65.7992   85.8043   60.1187 H         1 <0>         0.0000
     73 H36        68.8719   85.6371   64.6030 H         1 <0>         0.0000
     74 H37        67.4849   86.5267   65.3180 H         1 <0>         0.0000
     75 H38        67.3888   84.7475   65.0879 H         1 <0>         0.0000
     76 H39        63.9079   80.1182   60.8747 H         1 <0>         0.0000
     77 H40        64.7505   79.2848   62.2243 H         1 <0>         0.0000
     78 H41        63.0646   78.8310   61.8010 H         1 <0>         0.0000
     79 H42        65.6870   88.5266   55.6228 H         1 <0>         0.4500
@<TRIPOS>BOND
     1    7   33 1
     2   10   34 1
     3    6   33 1
     4    6    8 ar
     5    8    9 ar
     6    5    6 ar
     7    9   34 1
     8    9   11 ar
     9    4   32 2
    10    4    5 1
    11    5   12 ar
    12    2    4 1
    13   11   12 ar
    14   11   35 1
    15   12   31 1
    16    2    3 1
    17    1    2 2
    18    1   31 1
    19    1   13 1
    20   13   14 1
    21   14   15 1
    22   15   26 1
    23   15   16 1
    24   17   28 1
    25   16   17 1
    26   17   18 1
    27   16   36 1
    28   27   36 1
    29   23   30 1
    30   18   19 1
    31   19   20 2
    32   18   37 1
    33   20   21 1
    34   21   22 2
    35   22   23 1
    36   23   24 2
    37   29   37 1
    38   24   25 1
    39    3   38 1
    40    3   39 1
    41    3   40 1
    42    7   41 1
    43    7   42 1
    44    7   43 1
    45    8   44 1
    46   10   45 1
    47   10   46 1
    48   10   47 1
    49   13   48 1
    50   13   49 1
    51   14   50 1
    52   14   51 1
    53   15   52 1
    54   16   53 1
    55   17   54 1
    56   18   55 1
    57   19   56 1
    58   20   57 1
    59   21   58 1
    60   22   59 1
    61   24   60 1
    62   25   61 1
    63   25   62 1
    64   25   63 1
    65   26   64 1
    66   26   65 1
    67   26   66 1
    68   27   67 1
    69   27   68 1
    70   27   69 1
    71   28   70 1
    72   28   71 1
    73   28   72 1
    74   29   73 1
    75   29   74 1
    76   29   75 1
    77   30   76 1
    78   30   77 1
    79   30   78 1
    80   35   79 1
