@<TRIPOS>MOLECULE
*****
   45    47     0     0     0
SMALL
USER_CHARGES

@<TRIPOS>ATOM
      1 P1         17.9380   30.1790   63.0940 P.3       1 <0>         1.4380
      2 O1         18.7630   29.0500   62.5770 O.3       1 <0>        -1.0333
      3 O2         17.9150   30.1630   64.6020 O.3       1 <0>        -1.0333
      4 O3         16.5560   30.1820   62.5590 O.2       1 <0>        -1.0333
      5 N1         18.8400   31.5440   62.5580 N.pl3     1 <0>        -1.0960
      6 P2         18.3480   33.1090   62.9030 P.3       1 <0>         1.5092
      7 O4         17.0450   33.3800   62.2970 O.2       1 <0>        -0.9500
      8 O5         18.4830   33.2960   64.3750 O.3       1 <0>        -0.9500
      9 O6         19.4750   33.9950   62.1390 O.3       1 <0>        -0.5424
     10 P3         20.7990   34.6220   62.6720 P.3       1 <0>         1.4424
     11 O7         20.5180   35.6510   63.6780 O.3       1 <0>        -0.9500
     12 O8         21.7090   33.4700   63.0460 O.2       1 <0>        -0.9500
     13 O9         21.3610   35.3140   61.4340 O.3       1 <0>        -0.5512
     14 C1         21.7430   34.6060   60.2350 C.3       1 <0>         0.2800
     15 C2         22.6680   35.4550   59.4040 C.3       1 <0>         0.2800
     16 O10        22.1250   36.6170   58.8660 O.3       1 <0>        -0.5600
     17 C3         23.9360   35.9240   60.1850 C.3       1 <0>         0.2800
     18 O11        25.1270   35.7510   59.3770 O.3       1 <0>        -0.6800
     19 C4         23.6390   37.4120   60.4650 C.3       1 <0>         0.2800
     20 O12        24.7650   38.1960   60.6820 O.3       1 <0>        -0.6800
     21 C5         22.8830   37.7630   59.2120 C.3       1 <0>         0.5356
     22 N2         21.9390   38.9040   59.4100 N.pl3     1 <0>         0.0476
     23 C6         20.9010   38.9380   60.4440 C.2       1 <0>         0.0365
     24 N3         20.2310   40.0610   60.3760 N.2       1 <0>        -0.5653
     25 C7         20.8470   40.8010   59.2520 C.2       1 <0>         0.1412
     26 C8         20.5210   42.1190   58.7110 C.2       1 <0>         0.7160
     27 O13        19.6800   42.8850   59.0460 O.2       1 <0>        -0.5700
     28 N4         21.3650   42.4430   57.6470 N.am      1 <0>        -0.4900
     29 C9         22.3380   41.5520   57.2600 C.2       1 <0>         0.5600
     30 N5         23.0790   42.1050   56.1570 N.pl3     1 <0>        -0.8500
     31 N6         22.6820   40.3840   57.6710 N.2       1 <0>        -0.5760
     32 C10        21.8700   40.0660   58.7260 C.2       1 <0>        -0.0256
     33 H1         18.8577   31.4806   61.5602 H         1 <0>         0.4200
     34 H2         20.8417   34.3718   59.6495 H         1 <0>         0.0000
     35 H3         22.2614   33.6772   60.5152 H         1 <0>         0.0000
     36 H4         22.9039   34.7546   58.5893 H         1 <0>         0.0000
     37 H5         24.1281   35.3522   61.1049 H         1 <0>         0.0000
     38 H6         24.8848   35.7132   58.4592 H         1 <0>         0.4000
     39 H7         23.0921   37.5941   61.4019 H         1 <0>         0.0000
     40 H8         25.1915   38.3750   59.8522 H         1 <0>         0.4000
     41 H9         23.6001   38.0634   58.4339 H         1 <0>         0.0000
     42 H10        20.7154   38.1502   61.1591 H         1 <0>         0.1500
     43 H11        21.2626   43.3161   57.1703 H         1 <0>         0.3700
     44 H12        22.4684   42.2333   55.3755 H         1 <0>         0.4000
     45 H13        23.4669   42.9869   56.4250 H         1 <0>         0.4000
@<TRIPOS>BOND
     1   29   30 1
     2   28   29 1
     3   29   31 2
     4   26   28 am
     5   31   32 1
     6   26   27 2
     7   25   26 1
     8   25   32 2
     9   22   32 1
    10   16   21 1
    11   15   16 1
    12   21   22 1
    13   19   21 1
    14   24   25 1
    15   17   18 1
    16   15   17 1
    17   14   15 1
    18   22   23 1
    19   17   19 1
    20   13   14 1
    21   23   24 2
    22   19   20 1
    23   10   13 1
    24    9   10 1
    25    6    9 1
    26    6    7 2
    27    5    6 1
    28    1    5 1
    29    1    4 2
    30    1    2 1
    31   10   12 2
    32   10   11 1
    33    6    8 1
    34    1    3 1
    35    5   33 1
    36   14   34 1
    37   14   35 1
    38   15   36 1
    39   17   37 1
    40   18   38 1
    41   19   39 1
    42   20   40 1
    43   21   41 1
    44   23   42 1
    45   28   43 1
    46   30   44 1
    47   30   45 1
