@<TRIPOS>MOLECULE
*****
   49    48     0     0     0
SMALL
USER_CHARGES

@<TRIPOS>ATOM
      1 C1         28.5230   30.7500   48.6880 C.2       1 <0>         0.9060
      2 O1         28.5280   29.9360   47.7330 O.co2     1 <0>        -0.9000
      3 O2         29.3040   31.7350   48.5740 O.co2     1 <0>        -0.9000
      4 C2         27.6000   30.4790   49.7750 C.3       1 <0>        -0.1060
      5 C3         27.6870   31.5020   50.8650 C.3       1 <0>         0.0000
      6 C4         26.6220   31.2000   51.9200 C.3       1 <0>         0.0000
      7 C5         26.0820   32.2140   52.9070 C.3       1 <0>         0.0000
      8 C6         24.8600   31.6840   53.6530 C.3       1 <0>         0.0000
      9 C7         25.3160   31.4640   55.0610 C.3       1 <0>         0.0000
     10 C8         24.1430   31.1660   55.9680 C.3       1 <0>         0.0000
     11 C9         24.7170   30.4240   57.1370 C.3       1 <0>         0.0000
     12 C10        23.7050   30.5350   58.2490 C.3       1 <0>         0.0000
     13 C11        22.9190   29.2410   58.2690 C.3       1 <0>         0.0000
     14 C12        22.3510   29.0900   59.6600 C.3       1 <0>         0.0000
     15 C13        21.8440   27.6630   59.8420 C.3       1 <0>         0.0000
     16 C14        22.9590   26.6510   59.6070 C.3       1 <0>         0.0000
     17 C15        22.5720   25.3730   60.3310 C.3       1 <0>         0.0000
     18 C16        23.6560   24.3140   60.1530 C.3       1 <0>         0.0000
     19 H1         26.5761   30.4831   49.3730 H         1 <0>         0.0000
     20 H2         27.8647   29.5026   50.2068 H         1 <0>         0.0000
     21 H3         28.6847   31.4654   51.3268 H         1 <0>         0.0000
     22 H4         27.5196   32.5052   50.4460 H         1 <0>         0.0000
     23 H5         25.7430   30.8730   51.3451 H         1 <0>         0.0000
     24 H6         27.1698   30.5202   52.5892 H         1 <0>         0.0000
     25 H7         26.8689   32.4468   53.6396 H         1 <0>         0.0000
     26 H8         25.7796   33.1109   52.3466 H         1 <0>         0.0000
     27 H9         24.0350   32.4108   53.6182 H         1 <0>         0.0000
     28 H10        24.4776   30.7573   53.2001 H         1 <0>         0.0000
     29 H11        26.0112   30.6118   55.0831 H         1 <0>         0.0000
     30 H12        25.8131   32.3784   55.4171 H         1 <0>         0.0000
     31 H13        23.6570   32.0966   56.2965 H         1 <0>         0.0000
     32 H14        23.3711   30.5759   55.4523 H         1 <0>         0.0000
     33 H15        24.8900   29.3693   56.8770 H         1 <0>         0.0000
     34 H16        25.6871   30.8460   57.4385 H         1 <0>         0.0000
     35 H17        24.2134   30.6865   59.2126 H         1 <0>         0.0000
     36 H18        23.0376   31.3938   58.0842 H         1 <0>         0.0000
     37 H19        22.1075   29.2761   57.5273 H         1 <0>         0.0000
     38 H20        23.5646   28.3873   58.0154 H         1 <0>         0.0000
     39 H21        23.1347   29.3001   60.4028 H         1 <0>         0.0000
     40 H22        21.5206   29.7979   59.7990 H         1 <0>         0.0000
     41 H23        21.0349   27.4768   59.1204 H         1 <0>         0.0000
     42 H24        21.4794   27.5495   60.8736 H         1 <0>         0.0000
     43 H25        23.0745   26.4570   58.5304 H         1 <0>         0.0000
     44 H26        23.9176   27.0357   59.9853 H         1 <0>         0.0000
     45 H27        22.4489   25.5878   61.4028 H         1 <0>         0.0000
     46 H28        21.6290   24.9944   59.9099 H         1 <0>         0.0000
     47 H29        23.7488   24.0592   59.0870 H         1 <0>         0.0000
     48 H30        24.6155   24.7063   60.5210 H         1 <0>         0.0000
     49 H31        23.3850   23.4130   60.7228 H         1 <0>         0.0000
@<TRIPOS>BOND
     1    1    2 2
     2    1    3 1
     3    1    4 1
     4    4    5 1
     5    5    6 1
     6    6    7 1
     7    7    8 1
     8    8    9 1
     9    9   10 1
    10   10   11 1
    11   11   12 1
    12   12   13 1
    13   13   14 1
    14   15   16 1
    15   16   17 1
    16   14   15 1
    17   17   18 1
    18    4   19 1
    19    4   20 1
    20    5   21 1
    21    5   22 1
    22    6   23 1
    23    6   24 1
    24    7   25 1
    25    7   26 1
    26    8   27 1
    27    8   28 1
    28    9   29 1
    29    9   30 1
    30   10   31 1
    31   10   32 1
    32   11   33 1
    33   11   34 1
    34   12   35 1
    35   12   36 1
    36   13   37 1
    37   13   38 1
    38   14   39 1
    39   14   40 1
    40   15   41 1
    41   15   42 1
    42   16   43 1
    43   16   44 1
    44   17   45 1
    45   17   46 1
    46   18   47 1
    47   18   48 1
    48   18   49 1
