@<TRIPOS>MOLECULE
*****
   42    44     0     0     0
SMALL
USER_CHARGES

@<TRIPOS>ATOM
      1 P1         36.4100   38.9790  -19.9550 P.3       1 <0>         1.3712
      2 O1         37.3060   39.7100  -20.8890 O.2       1 <0>        -1.0333
      3 O2         35.8870   37.6460  -20.3470 O.3       1 <0>        -1.0333
      4 O3         37.1560   38.8060  -18.6390 O.3       1 <0>        -1.0333
      5 P2         34.2240   40.6370  -20.7230 P.3       1 <0>         1.4424
      6 O4         32.8250   40.2330  -20.4370 O.3       1 <0>        -0.9500
      7 O5         34.7930   40.4110  -22.0770 O.2       1 <0>        -0.9500
      8 O6         35.1640   39.9120  -19.6780 O.3       1 <0>        -0.5424
      9 P3         33.3320   43.2040  -19.7710 P.3       1 <0>         1.4424
     10 O7         31.9560   42.7090  -20.0420 O.2       1 <0>        -0.9500
     11 O8         33.7530   43.4430  -18.3710 O.3       1 <0>        -0.9500
     12 O9         34.3690   42.1750  -20.3980 O.3       1 <0>        -0.5424
     13 O10        33.5620   44.5640  -20.5740 O.3       1 <0>        -0.5512
     14 C1         32.4820   45.4180  -20.9220 C.3       1 <0>         0.2800
     15 C2         32.6090   45.8560  -22.3640 C.3       1 <0>         0.2800
     16 O11        33.9020   46.4860  -22.5630 O.3       1 <0>        -0.5600
     17 C3         32.5860   44.7360  -23.3940 C.3       1 <0>         0.0000
     18 C4         33.3070   45.3700  -24.5790 C.3       1 <0>         0.2800
     19 O12        32.4730   46.1980  -25.3660 O.3       1 <0>        -0.6800
     20 C5         34.3660   46.2210  -23.8770 C.3       1 <0>         0.5356
     21 N1         35.6630   45.5510  -23.7940 N.pl3     1 <0>         0.0476
     22 C6         36.1680   44.7810  -22.7740 C.2       1 <0>         0.0365
     23 N2         37.3670   44.3080  -23.0130 N.2       1 <0>        -0.5653
     24 C7         37.6750   44.8010  -24.2730 C.ar      1 <0>         0.2272
     25 C8         38.8100   44.6590  -25.0970 C.ar      1 <0>         0.4100
     26 N3         39.8890   43.9510  -24.7570 N.pl3     1 <0>        -0.9000
     27 N4         38.7960   45.2780  -26.2990 N.ar      1 <0>        -0.6200
     28 C9         37.7120   45.9890  -26.6400 C.ar      1 <0>         0.4700
     29 N5         36.5880   46.1980  -25.9530 N.ar      1 <0>        -0.5670
     30 C10        36.6350   45.5690  -24.7650 C.ar      1 <0>         0.1054
     31 H1         32.4962   46.3045  -20.2710 H         1 <0>         0.0000
     32 H2         31.5355   44.8724  -20.7933 H         1 <0>         0.0000
     33 H3         31.7367   46.5082  -22.5178 H         1 <0>         0.0000
     34 H4         31.5597   44.4347  -23.6507 H         1 <0>         0.0000
     35 H5         33.0572   43.8068  -23.0410 H         1 <0>         0.0000
     36 H6         33.6904   44.6172  -25.2835 H         1 <0>         0.0000
     37 H7         31.6714   46.3836  -24.8911 H         1 <0>         0.4000
     38 H8         34.5135   47.1421  -24.4600 H         1 <0>         0.0000
     39 H9         35.6272   44.5838  -21.8602 H         1 <0>         0.1500
     40 H10        40.4422   43.7739  -25.5710 H         1 <0>         0.4000
     41 H11        40.4298   44.4664  -24.0923 H         1 <0>         0.4000
     42 H12        37.7549   46.4605  -27.6107 H         1 <0>         0.1500
@<TRIPOS>BOND
     1   27   28 ar
     2   28   29 ar
     3   25   27 ar
     4   29   30 ar
     5   18   19 1
     6   25   26 1
     7   24   25 ar
     8   24   30 ar
     9   21   30 1
    10   18   20 1
    11   17   18 1
    12   23   24 1
    13   20   21 1
    14   16   20 1
    15   21   22 1
    16   15   17 1
    17   22   23 2
    18   15   16 1
    19   14   15 1
    20    5    7 2
    21   13   14 1
    22    1    2 2
    23    5    6 1
    24    5   12 1
    25    5    8 1
    26    9   13 1
    27    9   12 1
    28    1    3 1
    29    9   10 2
    30    1    8 1
    31    1    4 1
    32    9   11 1
    33   14   31 1
    34   14   32 1
    35   15   33 1
    36   17   34 1
    37   17   35 1
    38   18   36 1
    39   19   37 1
    40   20   38 1
    41   22   39 1
    42   26   40 1
    43   26   41 1
    44   28   42 1
