@<TRIPOS>MOLECULE
*****
   58    60     0     0     0
SMALL
USER_CHARGES

@<TRIPOS>ATOM
      1 N1          6.5650   31.8650   42.0760 N.pl3     1 <0>        -0.8691
      2 C1          6.9910   31.0390   43.0590 C.3       1 <0>         1.1722
      3 N2          8.4480   30.9130   43.1980 N.4       1 <0>        -0.8530
      4 N3          6.4260   30.3430   43.8960 N.am      1 <0>        -0.7301
      5 C2          5.0380   30.2760   43.7460 C.2       1 <0>         0.6156
      6 O1          4.2260   29.3400   44.3640 O.2       1 <0>        -0.5700
      7 C3          4.4230   31.2170   42.9020 C.2       1 <0>         0.1234
      8 N4          3.0820   31.2410   42.6130 N.am      1 <0>        -0.4691
      9 C4          2.6260   30.7100   41.2460 C.3       1 <0>         0.3001
     10 C5          3.6650   31.0060   40.1800 C.3       1 <0>         0.3691
     11 N5          4.6630   31.8060   40.6430 N.pl3     1 <0>        -0.8691
     12 C6          5.2070   31.8450   41.9080 C.2       1 <0>         0.2000
     13 C7          2.2340   29.2610   41.3360 C.3       1 <0>         0.3691
     14 N6          1.1970   28.9790   40.3260 N.pl3     1 <0>        -0.8691
     15 C8         -2.9610   30.0980   40.0960 C.ar      1 <0>         0.0862
     16 C9         -2.2330   29.4430   39.0400 C.ar      1 <0>        -0.1500
     17 C10        -0.9140   28.9580   39.1910 C.ar      1 <0>        -0.1500
     18 C11        -0.2180   29.3510   40.3460 C.ar      1 <0>         0.1000
     19 C12        -0.8960   29.9410   41.4740 C.ar      1 <0>        -0.1500
     20 C13        -2.3050   30.2530   41.3770 C.ar      1 <0>        -0.1500
     21 C14        -4.3380   30.5150   39.7670 C.2       1 <0>         0.5438
     22 O2         -5.0070   31.1120   40.6390 O.2       1 <0>        -0.5700
     23 N7         -4.9000   30.2480   38.5250 N.am      1 <0>        -0.7301
     24 C15        -6.3490   30.0760   38.2880 C.3       1 <0>         0.1941
     25 C16        -6.6440   30.5570   36.9270 C.3       1 <0>         0.0000
     26 C17        -8.1490   30.8340   36.7330 C.3       1 <0>        -0.1060
     27 C18        -8.6680   31.0450   35.2810 C.2       1 <0>         0.9060
     28 O3         -9.9020   30.9620   35.0610 O.co2     1 <0>        -0.9000
     29 O4         -7.8600   31.2900   34.3600 O.co2     1 <0>        -0.9000
     30 C19        -6.9500   28.6220   38.4720 C.2       1 <0>         0.9060
     31 O5         -7.8630   28.4660   39.3120 O.co2     1 <0>        -0.9000
     32 O6         -6.5470   27.6640   37.7670 O.co2     1 <0>        -0.9000
     33 C20         2.0240   31.7250   43.5690 C.2       1 <0>         0.5700
     34 O7          2.1720   31.4140   44.9840 O.2       1 <0>        -0.5700
     35 H1          6.9913   31.5775   41.2183 H         1 <0>         0.4000
     36 H2          5.9390   31.2466   42.8137 H         1 <0>         0.0000
     37 H3          8.8686   30.8844   42.2912 H         1 <0>         0.4500
     38 H4          8.8034   31.6980   43.7055 H         1 <0>         0.4500
     39 H5          8.6639   30.0708   43.6920 H         1 <0>         0.4500
     40 H6          6.9167   29.8641   44.6239 H         1 <0>         0.3700
     41 H7          1.7163   31.2436   40.9335 H         1 <0>         0.0000
     42 H8          3.1697   31.5145   39.3397 H         1 <0>         0.0000
     43 H9          4.1130   30.0508   39.8686 H         1 <0>         0.0000
     44 H10         5.4409   31.5744   40.0589 H         1 <0>         0.4000
     45 H11         1.8392   29.0471   42.3402 H         1 <0>         0.0000
     46 H12         3.1136   28.6268   41.1514 H         1 <0>         0.0000
     47 H13         1.1764   27.9801   40.2834 H         1 <0>         0.4000
     48 H14        -2.7196   29.3160   38.0842 H         1 <0>         0.1500
     49 H15        -0.4616   28.3140   38.4514 H         1 <0>         0.1500
     50 H16        -0.3550   30.1485   42.3854 H         1 <0>         0.1500
     51 H17        -2.8555   30.5941   42.2413 H         1 <0>         0.1500
     52 H18        -4.2848   30.1669   37.7408 H         1 <0>         0.3700
     53 H19        -6.8400   30.6584   39.0815 H         1 <0>         0.0000
     54 H20        -6.3304   29.7885   36.2051 H         1 <0>         0.0000
     55 H21        -6.0978   31.4987   36.7691 H         1 <0>         0.0000
     56 H22        -8.3762   31.7559   37.2884 H         1 <0>         0.0000
     57 H23        -8.6508   29.9192   37.0812 H         1 <0>         0.0000
     58 H24         1.1749   32.2898   43.2134 H         1 <0>         0.0600
@<TRIPOS>BOND
     1   27   29 2
     2   27   28 1
     3   26   27 1
     4   25   26 1
     5   24   25 1
     6   30   32 2
     7   24   30 1
     8   23   24 1
     9   30   31 1
    10   21   23 am
    11   16   17 ar
    12   15   16 ar
    13   17   18 ar
    14   15   21 1
    15   21   22 2
    16   15   20 ar
    17   10   11 1
    18    9   10 1
    19   14   18 1
    20   13   14 1
    21   18   19 ar
    22   11   12 1
    23    9   13 1
    24    8    9 1
    25   19   20 ar
    26    1   12 1
    27    7   12 2
    28    1    2 1
    29    7    8 1
    30    8   33 am
    31    5    7 1
    32    2    3 1
    33    2    4 1
    34   33   34 2
    35    4    5 am
    36    5    6 2
    37    1   35 1
    38    2   36 1
    39    3   37 1
    40    3   38 1
    41    3   39 1
    42    4   40 1
    43    9   41 1
    44   10   42 1
    45   10   43 1
    46   11   44 1
    47   13   45 1
    48   13   46 1
    49   14   47 1
    50   16   48 1
    51   17   49 1
    52   19   50 1
    53   20   51 1
    54   23   52 1
    55   24   53 1
    56   25   54 1
    57   25   55 1
    58   26   56 1
    59   26   57 1
    60   33   58 1
