@<TRIPOS>MOLECULE
*****
   21    20     0     0     0
SMALL
USER_CHARGES

@<TRIPOS>ATOM
      1 C1         32.6150   11.6430   10.5490 C.2       1 <0>         0.9060
      2 C2         31.5990   10.6480    9.9990 C.3       1 <0>         0.1740
      3 C3         32.2390    9.6380    8.9960 C.3       1 <0>         0.2800
      4 C4         32.7200   10.1920    7.6680 C.3       1 <0>         0.0000
      5 C5         33.4010    8.8150    9.6900 C.3       1 <0>         0.0000
      6 C6         34.1570    7.7910    8.9790 C.3       1 <0>         0.0000
      7 O1         33.2230   12.3730    9.8180 O.co2     1 <0>        -0.9000
      8 O2         32.8440   11.6770   11.7460 O.co2     1 <0>        -0.9000
      9 O3         31.1610   10.0780   11.0250 O.3       1 <0>        -0.6800
     10 O4         31.1910    8.7510    8.6390 O.3       1 <0>        -0.6800
     11 H1         30.8069   11.1380    9.4137 H         1 <0>         0.0000
     12 H2         32.8364   11.2831    7.7458 H         1 <0>         0.0000
     13 H3         33.6881    9.7376    7.4104 H         1 <0>         0.0000
     14 H4         31.9842    9.9570    6.8849 H         1 <0>         0.0000
     15 H5         34.1438    9.5635   10.0030 H         1 <0>         0.0000
     16 H6         32.8584    8.2284   10.4459 H         1 <0>         0.0000
     17 H7         34.3474    8.1245    7.9482 H         1 <0>         0.0000
     18 H8         35.1151    7.6204    9.4919 H         1 <0>         0.0000
     19 H9         33.5788    6.8554    8.9605 H         1 <0>         0.0000
     20 H10        31.0501    9.1509   10.8498 H         1 <0>         0.4000
     21 H11        30.6680    8.5527    9.4069 H         1 <0>         0.4000
@<TRIPOS>BOND
     1    1    2 1
     2    1    7 2
     3    1    8 1
     4    2    3 1
     5    2    9 1
     6    3    4 1
     7    3    5 1
     8    3   10 1
     9    5    6 1
    10    2   11 1
    11    4   12 1
    12    4   13 1
    13    4   14 1
    14    5   15 1
    15    5   16 1
    16    6   17 1
    17    6   18 1
    18    6   19 1
    19    9   20 1
    20   10   21 1
