@<TRIPOS>MOLECULE
*****
   44    46     0     0     0
SMALL
USER_CHARGES

@<TRIPOS>ATOM
      1 N1         42.2290    7.1310   65.3230 N.am      1 <0>        -0.5470
      2 C1         41.6720    6.0870   66.0160 C.2       1 <0>         0.6900
      3 O1         41.1340    5.1300   65.4750 O.2       1 <0>        -0.5700
      4 N2         41.6980    6.2180   67.3710 N.am      1 <0>        -0.4900
      5 C2         42.2400    7.2810   68.0660 C.2       1 <0>         0.5438
      6 O2         42.1990    7.2590   69.2890 O.2       1 <0>        -0.5700
      7 C3         42.8260    8.2830   67.2280 C.ar      1 <0>         0.0862
      8 C4         43.4480    9.2970   67.8790 C.ar      1 <0>        -0.1500
      9 C5         44.1020   10.2430   67.1730 C.ar      1 <0>         0.0000
     10 C6         44.7140   11.2290   67.8320 C.ar      1 <0>        -0.1500
     11 C7         45.4060   12.1610   67.1510 C.ar      1 <0>        -0.1500
     12 C8         45.4680   12.0690   65.7910 C.ar      1 <0>         0.0825
     13 O3         46.2910   12.9140   65.1020 O.3       1 <0>        -0.5325
     14 C9         44.8430   11.0780   65.1260 C.ar      1 <0>        -0.1500
     15 C10        44.1440   10.1600   65.8080 C.ar      1 <0>         0.3610
     16 N3         43.5040    9.1820   65.0960 N.ar      1 <0>        -0.2100
     17 C11        42.8640    8.2450   65.8390 C.ar      1 <0>         0.4780
     18 C12        43.0850    9.3740   63.8370 C.3       1 <0>         0.4880
     19 C13        43.8390    8.7530   62.6550 C.3       1 <0>         0.2800
     20 O4         44.9930    9.5100   62.3390 O.3       1 <0>        -0.6800
     21 C14        43.9460    7.2190   62.4130 C.3       1 <0>         0.2800
     22 O5         43.5940    6.3900   63.4970 O.3       1 <0>        -0.6800
     23 C15        45.0970    6.5060   61.7240 C.3       1 <0>         0.2800
     24 O6         44.7850    6.1820   60.3800 O.3       1 <0>        -0.6800
     25 C16        46.5220    6.9280   61.8800 C.3       1 <0>         0.2800
     26 O7         47.3860    5.9770   61.2520 O.3       1 <0>        -0.6800
     27 H1         42.1686    7.0804   64.3261 H         1 <0>         0.3700
     28 H2         41.2894    5.4809   67.9092 H         1 <0>         0.3700
     29 H3         43.4201    9.3472   68.9575 H         1 <0>         0.1500
     30 H4         44.6541   11.2789   68.9092 H         1 <0>         0.1500
     31 H5         45.9029   12.9666   67.6712 H         1 <0>         0.1500
     32 H6         46.4821   13.6761   65.6361 H         1 <0>         0.4500
     33 H7         44.9049   11.0235   64.0491 H         1 <0>         0.1500
     34 H8         43.1131   10.4614   63.6735 H         1 <0>         0.0000
     35 H9         42.1136    8.8585   63.8141 H         1 <0>         0.0000
     36 H10        43.0639    8.8435   61.8797 H         1 <0>         0.0000
     37 H11        45.0150    9.6796   61.4045 H         1 <0>         0.4000
     38 H12        43.2006    7.3414   61.6134 H         1 <0>         0.0000
     39 H13        43.5148    5.4921   63.1969 H         1 <0>         0.4000
     40 H14        45.1377    5.6250   62.3814 H         1 <0>         0.0000
     41 H15        44.7152    6.9801   59.8694 H         1 <0>         0.4000
     42 H16        46.7673    6.9904   62.9505 H         1 <0>         0.0000
     43 H17        46.6615    7.9108   61.4059 H         1 <0>         0.0000
     44 H18        47.5776    6.2596   60.3655 H         1 <0>         0.4000
@<TRIPOS>BOND
     1   23   24 1
     2   25   26 1
     3   23   25 1
     4   21   23 1
     5   19   20 1
     6   19   21 1
     7   21   22 1
     8   18   19 1
     9   16   18 1
    10   15   16 ar
    11   16   17 ar
    12   12   13 1
    13   12   14 ar
    14   14   15 ar
    15    1   17 1
    16    1    2 am
    17    2    3 2
    18   11   12 ar
    19    9   15 ar
    20    7   17 ar
    21    2    4 am
    22   10   11 ar
    23    9   10 ar
    24    8    9 ar
    25    7    8 ar
    26    5    7 1
    27    4    5 am
    28    5    6 2
    29    1   27 1
    30    4   28 1
    31    8   29 1
    32   10   30 1
    33   11   31 1
    34   13   32 1
    35   14   33 1
    36   18   34 1
    37   18   35 1
    38   19   36 1
    39   20   37 1
    40   21   38 1
    41   22   39 1
    42   23   40 1
    43   24   41 1
    44   25   42 1
    45   25   43 1
    46   26   44 1
