@<TRIPOS>MOLECULE
*****
   32    32     0     0     0
SMALL
USER_CHARGES

@<TRIPOS>ATOM
      1 O1          6.2870    3.1910   -1.6160 O.3       1 <0>        -0.6800
      2 C1          5.4300    3.8770   -2.4800 C.3       1 <0>         0.7035
      3 O2          5.4750    5.2400   -2.0250 O.3       1 <0>        -0.6800
      4 C2          4.0230    3.2670   -2.3810 C.3       1 <0>         0.5030
      5 C3          2.9090    4.1360   -2.9560 C.3       1 <0>         0.0000
      6 C4          1.4980    3.5620   -2.7630 C.3       1 <0>         0.2300
      7 S1          0.2040    4.5530   -3.5070 S.3       1 <0>        -0.4600
      8 C5         -0.7150    5.1960   -2.1620 C.3       1 <0>         0.2300
      9 N1          3.7660    2.7620   -1.0590 N.4       1 <0>        -0.8530
     10 C6          5.9930    3.7210   -3.8500 C.ar      1 <0>         0.1665
     11 C7          6.1290    2.4990   -4.4350 C.ar      1 <0>        -0.1500
     12 C8          6.6540    2.4000   -5.7010 C.ar      1 <0>        -0.1500
     13 C9          7.1350    3.5200   -6.2970 C.ar      1 <0>        -0.1500
     14 C10         7.0160    4.7260   -5.6480 C.ar      1 <0>         0.1600
     15 N2          6.4530    4.8160   -4.4340 N.ar      1 <0>        -0.6200
     16 H1          7.1173    3.0353   -2.0505 H         1 <0>         0.4000
     17 H2          5.4849    5.2571   -1.0752 H         1 <0>         0.4000
     18 H3          4.0137    2.3981   -3.0554 H         1 <0>         0.0000
     19 H4          3.0862    4.2419   -4.0365 H         1 <0>         0.0000
     20 H5          2.9401    5.0929   -2.4143 H         1 <0>         0.0000
     21 H6          1.3006    3.4998   -1.6826 H         1 <0>         0.0000
     22 H7          1.4786    2.5810   -3.2603 H         1 <0>         0.0000
     23 H8         -0.0515    5.3308   -1.2950 H         1 <0>         0.0000
     24 H9         -1.1494    6.1660   -2.4454 H         1 <0>         0.0000
     25 H10        -1.5214    4.4949   -1.9008 H         1 <0>         0.0000
     26 H11         3.7064    1.7642   -1.0886 H         1 <0>         0.4500
     27 H12         4.5099    3.0334   -0.4482 H         1 <0>         0.4500
     28 H13         2.9030    3.1374   -0.7210 H         1 <0>         0.4500
     29 H14         5.8247    1.6088   -3.9047 H         1 <0>         0.1500
     30 H15         6.6832    1.4489   -6.2118 H         1 <0>         0.1500
     31 H16         7.6049    3.4648   -7.2679 H         1 <0>         0.1500
     32 H17         7.3843    5.6214   -6.1266 H         1 <0>         0.1500
@<TRIPOS>BOND
     1   12   13 ar
     2   13   14 ar
     3   11   12 ar
     4   14   15 ar
     5   10   11 ar
     6   10   15 ar
     7    2   10 1
     8    6    7 1
     9    7    8 1
    10    5    6 1
    11    4    5 1
    12    2    4 1
    13    2    3 1
    14    1    2 1
    15    4    9 1
    16    1   16 1
    17    3   17 1
    18    4   18 1
    19    5   19 1
    20    5   20 1
    21    6   21 1
    22    6   22 1
    23    8   23 1
    24    8   24 1
    25    8   25 1
    26    9   26 1
    27    9   27 1
    28    9   28 1
    29   11   29 1
    30   12   30 1
    31   13   31 1
    32   14   32 1
