@<TRIPOS>MOLECULE
*****
  138   141     0     0     0
SMALL
USER_CHARGES

@<TRIPOS>ATOM
      1 O1         37.4320   46.7000   31.1230 O.3       1 <0>        -0.6800
      2 C1         36.8680   48.0160   31.3020 C.3       1 <0>         0.4182
      3 C2         35.3730   47.8710   31.1820 C.2       1 <0>        -0.2882
      4 C3         34.6910   47.2280   30.0000 C.2       1 <0>        -0.2764
      5 C4         33.3130   46.7730   30.3110 C.3       1 <0>         0.1382
      6 C5         35.0940   47.7660   28.6530 C.3       1 <0>         0.1382
      7 C6         34.6280   47.0690   27.3780 C.3       1 <0>         0.2800
      8 O2         35.3520   45.8250   27.3570 O.3       1 <0>        -0.4300
      9 C7         34.6630   44.6570   27.6210 C.2       1 <0>         0.7800
     10 N1         35.4870   43.6650   27.1280 N.am      1 <0>        -0.8000
     11 O3         33.4350   44.5150   27.6300 O.2       1 <0>        -0.5700
     12 C8         34.7270   47.9270   26.1340 C.3       1 <0>         0.0610
     13 C9         34.1900   47.1230   25.0030 C.2       1 <0>         0.6590
     14 O4         33.0920   46.5870   25.0290 O.2       1 <0>        -0.5700
     15 O5         34.9170   47.3520   23.8970 O.3       1 <0>        -0.4300
     16 C10        37.4050   48.7340   32.5290 C.3       1 <0>         0.0000
     17 C11        36.8660   50.1510   32.5490 C.3       1 <0>         0.0000
     18 C12        38.9260   48.8760   32.6620 C.3       1 <0>         0.4610
     19 O6         39.3530   47.5220   32.7910 O.3       1 <0>        -0.5600
     20 C13        40.6430   47.2710   33.3480 C.3       1 <0>         0.2800
     21 C14        39.6940   49.4910   31.5620 C.2       1 <0>         0.0462
     22 C15        40.2260   50.7510   31.5530 C.2       1 <0>        -0.0100
     23 O7         40.7940   50.9040   30.3220 O.3       1 <0>        -0.2800
     24 N2         39.8290   48.8740   30.3120 N.2       1 <0>        -0.5653
     25 C16        40.4550   49.7690   29.5680 C.2       1 <0>         0.4781
     26 C17        41.0490   49.7010   28.2770 C.2       1 <0>         0.2272
     27 C18        41.8290   50.5430   27.5050 C.2       1 <0>        -0.0100
     28 O8         41.9240   49.9290   26.2650 O.3       1 <0>        -0.2800
     29 N3         40.5910   48.6690   27.4540 N.2       1 <0>        -0.5653
     30 C19        41.1430   48.7370   26.2720 C.2       1 <0>         0.4781
     31 C20        40.9860   48.1410   24.9870 C.2       1 <0>         0.2272
     32 N4         39.9970   47.1340   25.0360 N.2       1 <0>        -0.5653
     33 C21        41.7570   48.3420   23.8630 C.2       1 <0>        -0.0100
     34 O9         41.0790   47.4700   23.0310 O.3       1 <0>        -0.2800
     35 C22        40.1520   46.7260   23.7810 C.2       1 <0>         0.4331
     36 C23        39.3160   45.7790   23.0780 C.2       1 <0>        -0.1050
     37 C24        38.2650   45.2930   23.7490 C.2       1 <0>        -0.2882
     38 C25        37.3630   44.3080   23.0750 C.3       1 <0>         0.1382
     39 C26        35.8720   44.6980   23.1190 C.3       1 <0>         0.2800
     40 O10        34.8160   43.7520   22.8150 O.3       1 <0>        -0.5600
     41 C27        34.2380   43.1480   23.9650 C.3       1 <0>         0.2800
     42 C28        35.6100   45.8910   22.1720 C.3       1 <0>         0.0000
     43 C29        35.3750   45.4130   20.7500 C.3       1 <0>         0.0000
     44 C30        34.4710   46.8220   22.6250 C.3       1 <0>         0.2800
     45 C31        34.2460   47.9800   21.6570 C.3       1 <0>         0.0000
     46 C32        33.2780   49.0380   22.1880 C.3       1 <0>         0.2800
     47 O11        32.0110   48.3940   22.3610 O.3       1 <0>        -0.5600
     48 C33        31.1180   48.9710   23.3100 C.3       1 <0>         0.2800
     49 C34        33.1140   50.2790   21.3190 C.3       1 <0>         0.0000
     50 C35        34.4280   51.0170   21.3560 C.3       1 <0>         0.0000
     51 C36        32.6880   49.9240   19.9060 C.3       1 <0>         0.0000
     52 C37        32.3140   51.1020   19.0540 C.3       1 <0>         0.0610
     53 C38        31.7190   50.7190   17.7330 C.2       1 <0>         0.4480
     54 O12        32.0220   49.6400   17.2110 O.2       1 <0>        -0.5700
     55 C39        31.2390   51.8390   16.8540 C.3       1 <0>         0.0610
     56 C40        29.7880   51.5090   16.5540 C.3       1 <0>         0.0000
     57 C41        32.0150   52.0190   15.5420 C.3       1 <0>         0.2800
     58 O13        33.3980   52.1710   15.9040 O.3       1 <0>        -0.5600
     59 C42        34.3690   51.2020   15.5160 C.3       1 <0>         0.2800
     60 C43        31.5590   53.2450   14.7310 C.3       1 <0>         0.0000
     61 C44        32.0920   53.1700   13.3070 C.3       1 <0>         0.0000
     62 C45        31.8660   54.5380   15.4180 C.3       1 <0>         0.0000
     63 C46        30.7750   55.2290   15.8140 C.3       1 <0>         0.3001
     64 N5         31.0050   56.4490   16.4880 N.am      1 <0>        -0.6602
     65 C47        32.2800   56.8840   17.0060 C.3       1 <0>         0.3001
     66 C48        29.8920   57.1920   16.8470 C.2       1 <0>         0.5700
     67 O14        29.9320   58.2730   17.4270 O.2       1 <0>        -0.5700
     68 H1         37.5560   46.5315   30.1963 H         1 <0>         0.4000
     69 H2         37.1910   48.7140   30.5156 H         1 <0>         0.0000
     70 H3         34.7568   48.2475   31.9851 H         1 <0>         0.1500
     71 H4         33.2003   46.6604   31.3994 H         1 <0>         0.0000
     72 H5         32.5899   47.5156   29.9426 H         1 <0>         0.0000
     73 H6         33.1273   45.8056   29.8214 H         1 <0>         0.0000
     74 H7         36.1934   47.7375   28.6307 H         1 <0>         0.0000
     75 H8         34.5965   48.7460   28.6075 H         1 <0>         0.0000
     76 H9         33.5458   46.8719   27.3786 H         1 <0>         0.0000
     77 H10        36.2972   44.1120   26.7488 H         1 <0>         0.3700
     78 H11        35.3070   42.6815   27.1466 H         1 <0>         0.3700
     79 H12        35.7750   48.2009   25.9427 H         1 <0>         0.0000
     80 H13        34.1552   48.8587   26.2563 H         1 <0>         0.0000
     81 H14        37.0746   48.0866   33.3547 H         1 <0>         0.0000
     82 H15        36.7355   50.4795   33.5906 H         1 <0>         0.0000
     83 H16        37.5752   50.8201   32.0398 H         1 <0>         0.0000
     84 H17        35.8961   50.1814   32.0310 H         1 <0>         0.0000
     85 H18        39.1180   49.5744   33.4898 H         1 <0>         0.0000
     86 H19        41.3859   47.2064   32.5393 H         1 <0>         0.0000
     87 H20        40.9137   48.0908   34.0297 H         1 <0>         0.0000
     88 H21        40.6236   46.3222   33.9043 H         1 <0>         0.0000
     89 H22        40.2015   51.4748   32.3542 H         1 <0>         0.1500
     90 H23        42.2712   51.4816   27.8049 H         1 <0>         0.1500
     91 H24        42.6139   48.9757   23.6882 H         1 <0>         0.1500
     92 H25        39.5289   45.4789   22.0626 H         1 <0>         0.1500
     93 H26        38.0706   45.6077   24.7637 H         1 <0>         0.1500
     94 H27        37.4769   43.3387   23.5825 H         1 <0>         0.0000
     95 H28        37.6566   44.2739   22.0154 H         1 <0>         0.0000
     96 H29        35.7838   44.8679   24.2022 H         1 <0>         0.0000
     97 H30        34.0887   42.0740   23.7799 H         1 <0>         0.0000
     98 H31        34.9096   43.2816   24.8258 H         1 <0>         0.0000
     99 H32        33.2683   43.6211   24.1791 H         1 <0>         0.0000
    100 H33        36.5257   46.4994   22.2092 H         1 <0>         0.0000
    101 H34        35.3182   46.2803   20.0758 H         1 <0>         0.0000
    102 H35        36.2057   44.7618   20.4403 H         1 <0>         0.0000
    103 H36        34.4308   44.8506   20.7039 H         1 <0>         0.0000
    104 H37        33.5195   46.2726   22.6783 H         1 <0>         0.0000
    105 H38        33.8295   47.5714   20.7245 H         1 <0>         0.0000
    106 H39        35.2178   48.4730   21.5065 H         1 <0>         0.0000
    107 H40        33.7017   49.4237   23.1270 H         1 <0>         0.0000
    108 H41        31.6431   49.1197   24.2651 H         1 <0>         0.0000
    109 H42        30.7599   49.9407   22.9338 H         1 <0>         0.0000
    110 H43        30.2616   48.2979   23.4636 H         1 <0>         0.0000
    111 H44        32.3098   50.9221   21.7059 H         1 <0>         0.0000
    112 H45        34.7772   51.1968   20.3285 H         1 <0>         0.0000
    113 H46        34.2933   51.9796   21.8710 H         1 <0>         0.0000
    114 H47        35.1724   50.4130   21.8956 H         1 <0>         0.0000
    115 H48        31.8095   49.2655   19.9745 H         1 <0>         0.0000
    116 H49        33.5556   49.4490   19.4246 H         1 <0>         0.0000
    117 H50        33.2242   51.6892   18.8625 H         1 <0>         0.0000
    118 H51        31.5497   51.6717   19.6029 H         1 <0>         0.0000
    119 H52        31.3866   52.7930   17.3813 H         1 <0>         0.0000
    120 H53        29.2271   51.4292   17.4969 H         1 <0>         0.0000
    121 H54        29.3515   52.3060   15.9342 H         1 <0>         0.0000
    122 H55        29.7340   50.5525   16.0135 H         1 <0>         0.0000
    123 H56        31.8369   51.1458   14.8972 H         1 <0>         0.0000
    124 H57        34.2343   50.9524   14.4532 H         1 <0>         0.0000
    125 H58        35.3780   51.6117   15.6713 H         1 <0>         0.0000
    126 H59        34.2439   50.2941   16.1243 H         1 <0>         0.0000
    127 H60        30.4612   53.2212   14.6656 H         1 <0>         0.0000
    128 H61        31.2495   53.1519   12.6000 H         1 <0>         0.0000
    129 H62        32.7215   54.0490   13.1045 H         1 <0>         0.0000
    130 H63        32.6903   52.2547   13.1875 H         1 <0>         0.0000
    131 H64        32.4659   54.3119   16.3119 H         1 <0>         0.0000
    132 H65        32.3941   55.1686   14.6877 H         1 <0>         0.0000
    133 H66        30.1944   55.4633   14.9096 H         1 <0>         0.0000
    134 H67        30.2681   54.5819   16.5449 H         1 <0>         0.0000
    135 H68        32.9947   56.9947   16.1771 H         1 <0>         0.0000
    136 H69        32.1578   57.8509   17.5161 H         1 <0>         0.0000
    137 H70        32.6594   56.1379   17.7197 H         1 <0>         0.0000
    138 H71        28.9202   56.7915   16.5989 H         1 <0>         0.0600
@<TRIPOS>BOND
     1   60   61 1
     2   60   62 1
     3   57   60 1
     4   62   63 1
     5   58   59 1
     6   57   58 1
     7   55   57 1
     8   63   64 1
     9   64   66 am
    10   64   65 1
    11   55   56 1
    12   66   67 2
    13   53   55 1
    14   53   54 2
    15   52   53 1
    16   51   52 1
    17   49   51 1
    18   42   43 1
    19   49   50 1
    20   46   49 1
    21   45   46 1
    22   44   45 1
    23   42   44 1
    24   39   42 1
    25   46   47 1
    26   47   48 1
    27   15   44 1
    28   39   40 1
    29   40   41 1
    30   34   35 1
    31   33   34 1
    32   38   39 1
    33   37   38 1
    34   36   37 2
    35   35   36 1
    36   32   35 2
    37   31   33 2
    38   13   15 1
    39   31   32 1
    40   30   31 1
    41   13   14 2
    42   12   13 1
    43    7   12 1
    44   28   30 1
    45   27   28 1
    46   29   30 2
    47    9   10 am
    48    7    8 1
    49    8    9 1
    50    6    7 1
    51   26   29 1
    52   26   27 2
    53    9   11 2
    54   25   26 1
    55    4    6 1
    56   24   25 2
    57   23   25 1
    58    4    5 1
    59    3    4 2
    60   21   24 1
    61   22   23 1
    62    1    2 1
    63    2    3 1
    64    2   16 1
    65   21   22 2
    66   18   21 1
    67   16   17 1
    68   16   18 1
    69   18   19 1
    70   19   20 1
    71    1   68 1
    72    2   69 1
    73    3   70 1
    74    5   71 1
    75    5   72 1
    76    5   73 1
    77    6   74 1
    78    6   75 1
    79    7   76 1
    80   10   77 1
    81   10   78 1
    82   12   79 1
    83   12   80 1
    84   16   81 1
    85   17   82 1
    86   17   83 1
    87   17   84 1
    88   18   85 1
    89   20   86 1
    90   20   87 1
    91   20   88 1
    92   22   89 1
    93   27   90 1
    94   33   91 1
    95   36   92 1
    96   37   93 1
    97   38   94 1
    98   38   95 1
    99   39   96 1
   100   41   97 1
   101   41   98 1
   102   41   99 1
   103   42  100 1
   104   43  101 1
   105   43  102 1
   106   43  103 1
   107   44  104 1
   108   45  105 1
   109   45  106 1
   110   46  107 1
   111   48  108 1
   112   48  109 1
   113   48  110 1
   114   49  111 1
   115   50  112 1
   116   50  113 1
   117   50  114 1
   118   51  115 1
   119   51  116 1
   120   52  117 1
   121   52  118 1
   122   55  119 1
   123   56  120 1
   124   56  121 1
   125   56  122 1
   126   57  123 1
   127   59  124 1
   128   59  125 1
   129   59  126 1
   130   60  127 1
   131   61  128 1
   132   61  129 1
   133   61  130 1
   134   62  131 1
   135   62  132 1
   136   63  133 1
   137   63  134 1
   138   65  135 1
   139   65  136 1
   140   65  137 1
   141   66  138 1
