@<TRIPOS>MOLECULE
*****
   55    56     0     0     0
SMALL
USER_CHARGES

@<TRIPOS>ATOM
      1 C1         27.8590   41.3560   29.9450 C.3       1 <0>         0.0000
      2 C2         27.7080   42.3620   31.0920 C.3       1 <0>         0.5030
      3 N1         26.4000   42.9990   31.0150 N.4       1 <0>        -0.8530
      4 P1         29.0160   43.5020   31.0260 P.3       1 <0>         0.9000
      5 O1         30.2300   42.6500   31.2230 O.3       1 <0>        -0.9500
      6 O2         28.9360   44.3150   29.7670 O.2       1 <0>        -0.9500
      7 C3         28.8610   44.5560   32.3940 C.3       1 <0>         0.0000
      8 C4         30.1480   44.7420   33.2110 C.3       1 <0>         0.0610
      9 C5         30.3750   43.5780   34.1410 C.2       1 <0>         0.5690
     10 O3         31.5010   43.1770   34.3910 O.2       1 <0>        -0.5700
     11 N2         29.3100   42.9860   34.6650 N.am      1 <0>        -0.7301
     12 C6         29.5280   41.9220   35.6310 C.3       1 <0>         0.1941
     13 C7         29.4470   42.4720   37.0530 C.3       1 <0>         0.0000
     14 C8         28.5250   40.8350   35.4610 C.2       1 <0>         0.9060
     15 O4         27.6000   40.9770   34.6580 O.co2     1 <0>        -0.9000
     16 O5         28.6470   39.8160   36.1230 O.co2     1 <0>        -0.9000
     17 C9         30.0520   46.0510   34.0090 C.3       1 <0>         0.1435
     18 C10        31.3280   46.3400   34.7470 C.ar      1 <0>        -0.1435
     19 C11        31.3180   46.4890   36.1320 C.ar      1 <0>        -0.1500
     20 C12        32.5010   46.7400   36.8190 C.ar      1 <0>        -0.1500
     21 C13        33.7170   46.8410   36.1310 C.ar      1 <0>         0.0000
     22 C14        33.7170   46.6950   34.7390 C.ar      1 <0>        -0.1500
     23 C15        32.5330   46.4480   34.0540 C.ar      1 <0>        -0.1500
     24 C16        34.9700   47.0860   36.8550 C.ar      1 <0>         0.0000
     25 C17        36.1210   46.3480   36.5520 C.ar      1 <0>        -0.1500
     26 C18        37.3100   46.5740   37.2400 C.ar      1 <0>        -0.1500
     27 C19        37.3650   47.5440   38.2380 C.ar      1 <0>        -0.1500
     28 C20        36.2260   48.2850   38.5470 C.ar      1 <0>        -0.1500
     29 C21        35.0370   48.0560   37.8620 C.ar      1 <0>        -0.1500
     30 H1         27.8952   41.8946   28.9866 H         1 <0>         0.0000
     31 H2         28.7889   40.7840   30.0793 H         1 <0>         0.0000
     32 H3         27.0011   40.6675   29.9462 H         1 <0>         0.0000
     33 H4         27.7614   41.8539   32.0662 H         1 <0>         0.0000
     34 H5         26.0449   43.1450   31.9384 H         1 <0>         0.4500
     35 H6         26.4850   43.8790   30.5478 H         1 <0>         0.4500
     36 H7         25.7722   42.4102   30.5059 H         1 <0>         0.4500
     37 H8         28.5537   45.5447   32.0225 H         1 <0>         0.0000
     38 H9         28.1271   44.0893   33.0675 H         1 <0>         0.0000
     39 H10        31.0036   44.7891   32.5212 H         1 <0>         0.0000
     40 H11        28.3854   43.2632   34.4035 H         1 <0>         0.3700
     41 H12        30.5318   41.5074   35.4563 H         1 <0>         0.0000
     42 H13        29.4275   41.6372   37.7690 H         1 <0>         0.0000
     43 H14        30.3245   43.1049   37.2517 H         1 <0>         0.0000
     44 H15        28.5305   43.0703   37.1628 H         1 <0>         0.0000
     45 H16        29.8506   46.8775   33.3116 H         1 <0>         0.0000
     46 H17        29.2413   45.9491   34.7455 H         1 <0>         0.0000
     47 H18        30.3876   46.4093   36.6747 H         1 <0>         0.1500
     48 H19        32.4819   46.8581   37.8924 H         1 <0>         0.1500
     49 H20        34.6450   46.7749   34.1924 H         1 <0>         0.1500
     50 H21        32.5465   46.3392   32.9796 H         1 <0>         0.1500
     51 H22        36.0859   45.5964   35.7772 H         1 <0>         0.1500
     52 H23        38.1905   45.9967   36.9997 H         1 <0>         0.1500
     53 H24        38.2876   47.7213   38.7707 H         1 <0>         0.1500
     54 H25        36.2664   49.0385   39.3197 H         1 <0>         0.1500
     55 H26        34.1575   48.6319   38.1094 H         1 <0>         0.1500
@<TRIPOS>BOND
     1    4    6 2
     2    1    2 1
     3    2    3 1
     4    2    4 1
     5    4    5 1
     6    4    7 1
     7    7    8 1
     8    8   17 1
     9    8    9 1
    10   17   18 1
    11   22   23 ar
    12   18   23 ar
    13    9   10 2
    14    9   11 am
    15   14   15 2
    16   11   12 1
    17   21   22 ar
    18   18   19 ar
    19   12   14 1
    20   14   16 1
    21   12   13 1
    22   20   21 ar
    23   21   24 1
    24   19   20 ar
    25   24   25 ar
    26   25   26 ar
    27   24   29 ar
    28   26   27 ar
    29   28   29 ar
    30   27   28 ar
    31    1   30 1
    32    1   31 1
    33    1   32 1
    34    2   33 1
    35    3   34 1
    36    3   35 1
    37    3   36 1
    38    7   37 1
    39    7   38 1
    40    8   39 1
    41   11   40 1
    42   12   41 1
    43   13   42 1
    44   13   43 1
    45   13   44 1
    46   17   45 1
    47   17   46 1
    48   19   47 1
    49   20   48 1
    50   22   49 1
    51   23   50 1
    52   25   51 1
    53   26   52 1
    54   27   53 1
    55   28   54 1
    56   29   55 1
