@<TRIPOS>MOLECULE
*****
   13    13     0     0     0
SMALL
USER_CHARGES

@<TRIPOS>ATOM
      1 N1         30.2650   27.5840   36.6050 N.am      1 <0>        -0.4900
      2 C1         29.5660   27.4060   37.7630 C.2       1 <0>         0.6900
      3 O1         28.3910   27.7770   37.8600 O.2       1 <0>        -0.5700
      4 N2         30.1870   26.7680   38.8080 N.am      1 <0>        -0.4900
      5 C2         31.4490   26.3910   38.6630 C.2       1 <0>         0.3630
      6 N3         32.1650   26.5870   37.5440 N.2       1 <0>        -0.6610
      7 C3         31.5580   27.2120   36.3810 C.2       1 <0>         0.8410
      8 O2         32.1080   27.4350   35.3230 O.2       1 <0>        -0.5700
      9 C4         32.1630   25.7700   39.8340 C.2       1 <0>         0.9470
     10 O3         33.4010   25.6320   39.6900 O.co2     1 <0>        -0.9000
     11 O4         31.5310   25.4880   40.8560 O.co2     1 <0>        -0.9000
     12 H1         29.7842   28.0290   35.8495 H         1 <0>         0.3700
     13 H2         29.6968   26.5913   39.6615 H         1 <0>         0.3700
@<TRIPOS>BOND
     1    1    2 am
     2    1    7 am
     3    2    3 2
     4    2    4 am
     5    4    5 1
     6    5    6 2
     7    5    9 1
     8    6    7 1
     9    7    8 2
    10    9   10 2
    11    9   11 1
    12    1   12 1
    13    4   13 1
