@<TRIPOS>MOLECULE
*****
   40    42     0     0     0
SMALL
USER_CHARGES

@<TRIPOS>ATOM
      1 P1         33.6650   34.5890  -10.0150 P.3       1 <0>         1.3712
      2 O1         32.6050   33.6500   -9.8690 O.3       1 <0>        -1.0333
      3 O2         33.9660   35.0030  -11.4380 O.2       1 <0>        -1.0333
      4 O3         34.9520   34.2550   -9.2380 O.3       1 <0>        -1.0333
      5 O4         33.1450   35.9830   -9.3450 O.3       1 <0>        -0.5424
      6 P2         31.9630   36.2740   -8.3380 P.3       1 <0>         1.4424
      7 O5         30.6580   36.2170   -8.9730 O.2       1 <0>        -0.9500
      8 O6         32.1290   35.3630   -7.1050 O.3       1 <0>        -0.9500
      9 O7         32.2280   37.7860   -7.9640 O.3       1 <0>        -0.5512
     10 C1         33.4380   38.2360   -7.3800 C.3       1 <0>         0.2800
     11 C2         33.2330   39.4910   -6.5430 C.3       1 <0>         0.2800
     12 O8         32.8510   40.5400   -7.4490 O.3       1 <0>        -0.5600
     13 C3         32.1140   39.3580   -5.5290 C.3       1 <0>         0.2800
     14 O9         32.4520   40.0870   -4.3540 O.3       1 <0>        -0.6800
     15 C4         30.9170   39.9640   -6.2250 C.3       1 <0>         0.2800
     16 O10        29.9160   40.4990   -5.3820 O.3       1 <0>        -0.6800
     17 C5         31.6210   41.0430   -7.0370 C.3       1 <0>         0.5356
     18 N1         30.8930   41.4490   -8.2480 N.pl3     1 <0>         0.0476
     19 C6         30.3650   40.6370   -9.1940 C.2       1 <0>         0.0365
     20 N2         29.7850   41.3530  -10.1780 N.2       1 <0>        -0.5653
     21 C7         29.9350   42.6510   -9.8190 C.2       1 <0>         0.1412
     22 C8         29.5310   43.8740  -10.4190 C.2       1 <0>         0.7160
     23 O11        28.9810   43.9840  -11.5480 O.2       1 <0>        -0.5700
     24 N3         29.8930   45.0170   -9.7490 N.am      1 <0>        -0.4900
     25 C9         30.5860   45.0420   -8.5510 C.2       1 <0>         0.5600
     26 N4         30.8850   46.1900   -7.9550 N.pl3     1 <0>        -0.8500
     27 N5         30.9680   43.8580   -7.9580 N.2       1 <0>        -0.5760
     28 C10        30.6210   42.7300   -8.6010 C.2       1 <0>        -0.0256
     29 H1         33.8326   37.4405   -6.7308 H         1 <0>         0.0000
     30 H2         34.1403   38.4773   -8.1915 H         1 <0>         0.0000
     31 H3         34.1661   39.6869   -5.9944 H         1 <0>         0.0000
     32 H4         31.9238   38.3213   -5.2142 H         1 <0>         0.0000
     33 H5         32.5273   39.4885   -3.6201 H         1 <0>         0.4000
     34 H6         30.3287   39.2251   -6.7889 H         1 <0>         0.0000
     35 H7         30.2683   40.6190   -4.5079 H         1 <0>         0.4000
     36 H8         31.7026   41.9252   -6.3851 H         1 <0>         0.0000
     37 H9         30.4034   39.5581   -9.1642 H         1 <0>         0.1500
     38 H10        29.6376   45.8941  -10.1558 H         1 <0>         0.3700
     39 H11        30.9602   46.0443   -6.9685 H         1 <0>         0.4000
     40 H12        31.7556   46.5321   -8.3086 H         1 <0>         0.4000
@<TRIPOS>BOND
     1   22   23 2
     2    1    3 2
     3   21   22 1
     4   22   24 am
     5   20   21 1
     6   19   20 2
     7    1    2 1
     8    1    5 1
     9    1    4 1
    10   21   28 2
    11   24   25 1
    12    5    6 1
    13   18   19 1
    14    6    7 2
    15   18   28 1
    16   27   28 1
    17   25   27 2
    18   25   26 1
    19    6    9 1
    20    6    8 1
    21   17   18 1
    22    9   10 1
    23   12   17 1
    24   11   12 1
    25   10   11 1
    26   15   17 1
    27   11   13 1
    28   13   15 1
    29   15   16 1
    30   13   14 1
    31   10   29 1
    32   10   30 1
    33   11   31 1
    34   13   32 1
    35   14   33 1
    36   15   34 1
    37   16   35 1
    38   17   36 1
    39   19   37 1
    40   24   38 1
    41   26   39 1
    42   26   40 1
