@<TRIPOS>MOLECULE
*****
   20    20     0     0     0
SMALL
USER_CHARGES

@<TRIPOS>ATOM
      1 O1        -22.6380   14.7210   43.8220 O.3       1 <0>        -0.6800
      2 C1        -21.8430   14.2850   44.9440 C.3       1 <0>         0.2800
      3 C2        -20.4280   14.0570   44.3410 C.3       1 <0>         0.2800
      4 O2        -19.9480   15.2740   43.7680 O.3       1 <0>        -0.5600
      5 C3        -19.3960   13.6130   45.3810 C.3       1 <0>         0.2800
      6 O3        -19.4410   12.1840   45.5000 O.3       1 <0>        -0.6800
      7 C4        -18.0890   14.2220   44.8740 C.3       1 <0>         0.2800
      8 O4        -17.1990   13.2000   44.4310 O.3       1 <0>        -0.6800
      9 C5        -18.5120   15.1230   43.6960 C.3       1 <0>         0.5600
     10 O5        -18.2410   14.4140   42.5290 O.3       1 <0>        -0.6800
     11 H1        -23.5434   14.8168   44.0931 H         1 <0>         0.4000
     12 H2        -21.8210   15.0462   45.7377 H         1 <0>         0.0000
     13 H3        -22.2480   13.3790   45.4185 H         1 <0>         0.0000
     14 H4        -20.5407   13.2596   43.5917 H         1 <0>         0.0000
     15 H5        -19.5624   13.9551   46.4131 H         1 <0>         0.0000
     16 H6        -19.4509   11.7938   44.6339 H         1 <0>         0.4000
     17 H7        -17.5565   14.7817   45.6570 H         1 <0>         0.0000
     18 H8        -17.0010   13.3288   43.5108 H         1 <0>         0.4000
     19 H9        -17.9969   16.0946   43.7202 H         1 <0>         0.0000
     20 H10       -18.1793   15.0178   41.7982 H         1 <0>         0.4000
@<TRIPOS>BOND
     1    1    2 1
     2    2    3 1
     3    3    4 1
     4    3    5 1
     5    4    9 1
     6    5    6 1
     7    5    7 1
     8    7    8 1
     9    7    9 1
    10    9   10 1
    11    1   11 1
    12    2   12 1
    13    2   13 1
    14    3   14 1
    15    5   15 1
    16    6   16 1
    17    7   17 1
    18    8   18 1
    19    9   19 1
    20   10   20 1
