@<TRIPOS>MOLECULE
*****
   70    74     0     0     0
SMALL
USER_CHARGES

@<TRIPOS>ATOM
      1 P1         12.2500   -7.0310   37.9680 P.3       1 <0>         1.4424
      2 O1         12.4990   -7.3060   36.5230 O.2       1 <0>        -0.9500
      3 O2         13.1200   -6.9910   39.1890 O.3       1 <0>        -0.9500
      4 O3         10.7080   -7.3620   38.3800 O.3       1 <0>        -0.5512
      5 C1          9.8460   -8.1600   37.5610 C.3       1 <0>         0.2800
      6 C2          8.4130   -7.8550   37.9080 C.3       1 <0>         0.2800
      7 O4          8.2500   -8.0160   39.3270 O.3       1 <0>        -0.5600
      8 C3          7.9480   -6.4180   37.6470 C.3       1 <0>         0.2800
      9 O5          7.5120   -6.2240   36.2940 O.3       1 <0>        -0.6800
     10 C4          6.8300   -6.2060   38.6500 C.3       1 <0>         0.2800
     11 O6          5.5430   -6.5640   38.1690 O.3       1 <0>        -0.6800
     12 C5          7.2660   -7.0540   39.8300 C.3       1 <0>         0.5356
     13 N1          7.8670   -6.2320   40.8910 N.pl3     1 <0>         0.0476
     14 C6          9.1060   -5.6260   40.8980 C.2       1 <0>         0.0365
     15 N2          9.3530   -4.9390   41.9920 N.2       1 <0>        -0.5653
     16 C7          8.1650   -5.0220   42.7090 C.ar      1 <0>         0.2272
     17 C8          7.7270   -4.4230   43.9160 C.ar      1 <0>         0.4100
     18 N3          8.4150   -3.4730   44.5640 N.pl3     1 <0>        -0.9000
     19 N4          6.5380   -4.8390   44.4300 N.ar      1 <0>        -0.6200
     20 C9          5.8200   -5.7480   43.7410 C.ar      1 <0>         0.4700
     21 N5          6.0260   -6.2050   42.5060 N.ar      1 <0>        -0.5670
     22 C10         7.2620   -5.8690   42.0750 C.ar      1 <0>         0.1054
     23 O7         12.4960   -8.6360   38.0670 O.3       1 <0>        -0.5424
     24 P2         13.6040   -9.6580   38.7070 P.3       1 <0>         1.4424
     25 O8         14.5180   -9.2350   39.8050 O.3       1 <0>        -0.9500
     26 O9         13.8620  -10.8120   37.7820 O.2       1 <0>        -0.9500
     27 O10        14.7100   -8.8240   37.8040 O.3       1 <0>        -0.5512
     28 C11        15.2690   -9.3010   36.5430 C.3       1 <0>         0.2800
     29 C12        16.7790   -9.5700   36.6220 C.3       1 <0>         0.2800
     30 O11        17.5290   -8.3690   36.8640 O.3       1 <0>        -0.5600
     31 C13        17.2210  -10.5010   37.7330 C.3       1 <0>         0.2800
     32 O12        17.1150  -11.8630   37.3070 O.3       1 <0>        -0.6800
     33 C14        18.6570  -10.1270   38.0370 C.3       1 <0>         0.2800
     34 O13        19.6110  -11.0230   37.4930 O.3       1 <0>        -0.6800
     35 C15        18.7980   -8.7330   37.4670 C.3       1 <0>         0.7680
     36 N6         19.1730   -7.7760   38.4820 N.ar      1 <0>        -0.2100
     37 C16        18.2700   -6.8340   38.9790 C.ar      1 <0>         0.2110
     38 C17        18.6250   -5.9400   39.9760 C.ar      1 <0>         0.0862
     39 C18        17.6380   -4.9880   40.5050 C.2       1 <0>         0.5438
     40 O14        17.9690   -4.2220   41.4220 O.2       1 <0>        -0.5700
     41 N7         16.4050   -4.9870   40.0000 N.am      1 <0>        -0.8000
     42 C19        19.9280   -5.9610   40.4630 C.ar      1 <0>        -0.1500
     43 C20        20.8530   -6.8630   39.9760 C.ar      1 <0>        -0.1500
     44 C21        20.4730   -7.7640   39.0010 C.ar      1 <0>         0.2110
     45 H1         10.0499   -9.2259   37.7406 H         1 <0>         0.0000
     46 H2         10.0266   -7.9303   36.5005 H         1 <0>         0.0000
     47 H3          7.8298   -8.5341   37.2687 H         1 <0>         0.0000
     48 H4          8.7612   -5.6875   37.7700 H         1 <0>         0.0000
     49 H5          6.5633   -6.1811   36.2696 H         1 <0>         0.4000
     50 H6          6.6981   -5.1426   38.8985 H         1 <0>         0.0000
     51 H7          4.9420   -6.6440   38.9004 H         1 <0>         0.4000
     52 H8          6.3943   -7.5612   40.2693 H         1 <0>         0.0000
     53 H9          9.8079   -5.7080   40.0813 H         1 <0>         0.1500
     54 H10         8.5864   -3.7675   45.5041 H         1 <0>         0.4000
     55 H11         9.2868   -3.3175   44.0994 H         1 <0>         0.4000
     56 H12         4.9657   -6.1602   44.2573 H         1 <0>         0.1500
     57 H13        15.0939   -8.5337   35.7745 H         1 <0>         0.0000
     58 H14        14.7746  -10.2531   36.2999 H         1 <0>         0.0000
     59 H15        16.9745  -10.0279   35.6411 H         1 <0>         0.0000
     60 H16        16.5918  -10.4032   38.6300 H         1 <0>         0.0000
     61 H17        17.0915  -11.8975   36.3579 H         1 <0>         0.4000
     62 H18        18.8611  -10.1747   39.1168 H         1 <0>         0.0000
     63 H19        19.3809  -11.2235   36.5934 H         1 <0>         0.4000
     64 H20        19.6003   -8.7236   36.7145 H         1 <0>         0.0000
     65 H21        17.2687   -6.8015   38.5756 H         1 <0>         0.1500
     66 H22        15.8684   -4.2851   40.4684 H         1 <0>         0.3700
     67 H23        16.0717   -5.5880   39.2736 H         1 <0>         0.3700
     68 H24        20.2201   -5.2620   41.2327 H         1 <0>         0.1500
     69 H25        21.8646   -6.8639   40.3542 H         1 <0>         0.1500
     70 H26        21.1956   -8.4759   38.6303 H         1 <0>         0.1500
@<TRIPOS>BOND
     1    8    9 1
     2    1    2 2
     3   28   29 1
     4   27   28 1
     5   29   30 1
     6   29   31 1
     7   30   35 1
     8   31   32 1
     9   33   35 1
    10   35   36 1
    11   33   34 1
    12    5    6 1
    13    4    5 1
    14    6    8 1
    15    8   10 1
    16   31   33 1
    17   24   26 2
    18   24   27 1
    19    6    7 1
    20    1   23 1
    21    1    4 1
    22    1    3 1
    23   23   24 1
    24   10   11 1
    25   36   37 ar
    26   36   44 ar
    27   10   12 1
    28   24   25 1
    29   37   38 ar
    30   43   44 ar
    31    7   12 1
    32   12   13 1
    33   42   43 ar
    34   38   42 ar
    35   38   39 1
    36   39   41 am
    37   39   40 2
    38   13   14 1
    39   13   22 1
    40   14   15 2
    41   15   16 1
    42   21   22 ar
    43   16   22 ar
    44   20   21 ar
    45   16   17 ar
    46   19   20 ar
    47   17   19 ar
    48   17   18 1
    49    5   45 1
    50    5   46 1
    51    6   47 1
    52    8   48 1
    53    9   49 1
    54   10   50 1
    55   11   51 1
    56   12   52 1
    57   14   53 1
    58   18   54 1
    59   18   55 1
    60   20   56 1
    61   28   57 1
    62   28   58 1
    63   29   59 1
    64   31   60 1
    65   32   61 1
    66   33   62 1
    67   34   63 1
    68   35   64 1
    69   37   65 1
    70   41   66 1
    71   41   67 1
    72   42   68 1
    73   43   69 1
    74   44   70 1
