@<TRIPOS>MOLECULE
*****
   14    13     0     0     0
SMALL
USER_CHARGES

@<TRIPOS>ATOM
      1 O1         11.9860   19.7120   11.2660 O.co2     1 <0>        -0.9000
      2 O2         11.4940   18.2660   12.9180 O.co2     1 <0>        -0.9000
      3 C1         12.2450   18.7290   12.0080 C.2       1 <0>         0.9060
      4 C2         13.5600   18.0200   11.8150 C.3       1 <0>         0.1740
      5 O3         13.5680   16.7900   12.5120 O.3       1 <0>        -0.6800
      6 C3         14.6900   18.8880   12.3280 C.3       1 <0>         0.1740
      7 O4         14.4760   19.2170   13.6570 O.3       1 <0>        -0.6800
      8 C4         15.9930   18.1720   12.0720 C.2       1 <0>         0.9060
      9 O5         16.3680   18.1030   10.8620 O.co2     1 <0>        -0.9000
     10 O6         16.6060   17.6640   13.0470 O.co2     1 <0>        -0.9000
     11 H1         13.6956   17.8255   10.7409 H         1 <0>         0.0000
     12 H2         13.5698   16.0726   11.8892 H         1 <0>         0.4000
     13 H3         14.7337   19.8486   11.7938 H         1 <0>         0.0000
     14 H4         14.4270   18.4230   14.1763 H         1 <0>         0.4000
@<TRIPOS>BOND
     1    1    3 2
     2    2    3 1
     3    3    4 1
     4    4    5 1
     5    4    6 1
     6    6    7 1
     7    6    8 1
     8    8    9 2
     9    8   10 1
    10    4   11 1
    11    5   12 1
    12    6   13 1
    13    7   14 1
