@<TRIPOS>MOLECULE
*****
   38    40     0     0     0
SMALL
USER_CHARGES

@<TRIPOS>ATOM
      1 N1         30.0740   99.7210   19.6560 N.2       1 <0>        -0.6960
      2 C1         31.4140  100.0580   19.7150 C.3       1 <0>         1.0491
      3 N2         31.9820  100.4290   18.5520 N.4       1 <0>        -0.8530
      4 N3         32.0780   99.9430   20.8670 N.am      1 <0>        -0.7301
      5 C2         31.4740   99.5320   22.0350 C.2       1 <0>         0.6156
      6 O1         32.0930   99.4310   23.1840 O.2       1 <0>        -0.5700
      7 N4         29.2370   98.7000   23.2380 N.pl3     1 <0>        -0.8691
      8 C3         28.0390   97.7620   22.8170 C.3       1 <0>         0.5073
      9 C4         27.1500   98.4540   21.6100 C.3       1 <0>         0.6491
     10 N5         27.9290   99.0050   20.5450 N.pl3     1 <0>        -0.8191
     11 C5         30.0450   99.1600   22.0570 C.2       1 <0>         0.0744
     12 C6         29.2830   99.2900   20.6520 C.2       1 <0>         0.5400
     13 C7         27.2370   97.3310   23.8690 C.2       1 <0>        -0.0372
     14 S1         27.8300   96.0350   24.7100 S.3       1 <0>        -0.2810
     15 C8         25.9730   98.0360   24.0690 C.2       1 <0>        -0.0372
     16 S2         25.0330   97.4050   25.4140 S.3       1 <0>        -0.2810
     17 C9         25.5080   99.2620   23.1640 C.3       1 <0>         0.4182
     18 O2         26.5500   99.6260   22.2180 O.3       1 <0>        -0.5600
     19 C10        25.1730  100.3340   24.0060 C.3       1 <0>         0.2800
     20 O3         24.7650  101.4720   23.2320 O.3       1 <0>        -0.5512
     21 P1         24.5640  102.7290   23.7570 P.3       1 <0>         1.3712
     22 O4         23.4520  102.6090   24.8070 O.3       1 <0>        -1.0333
     23 O5         24.2210  103.7300   22.7350 O.2       1 <0>        -1.0333
     24 O6         25.6740  103.1600   24.3860 O.3       1 <0>        -1.0333
     25 H1         32.0529  100.7582   20.2731 H         1 <0>         0.0000
     26 H2         31.2758  100.5210   17.8500 H         1 <0>         0.4500
     27 H3         32.4474  101.3057   18.6733 H         1 <0>         0.4500
     28 H4         32.6447   99.7357   18.2689 H         1 <0>         0.4500
     29 H5         33.0531  100.1641   20.8830 H         1 <0>         0.3700
     30 H6         29.8374   98.1910   23.8548 H         1 <0>         0.4000
     31 H7         28.5048   96.8415   22.4352 H         1 <0>         0.0000
     32 H8         26.4811   97.6804   21.2049 H         1 <0>         0.0000
     33 H9         27.4732   99.1954   19.6755 H         1 <0>         0.4000
     34 H10        27.9855   95.0281   23.9026 H         1 <0>         0.1800
     35 H11        25.8054   97.2492   26.4480 H         1 <0>         0.1800
     36 H12        24.6250   98.9815   22.5710 H         1 <0>         0.0000
     37 H13        24.3458  100.0305   24.6645 H         1 <0>         0.0000
     38 H14        26.0552  100.6071   24.6037 H         1 <0>         0.0000
@<TRIPOS>BOND
     1    2    3 1
     2    1    2 1
     3    1   12 2
     4    2    4 1
     5   10   12 1
     6    9   10 1
     7   11   12 2
     8    4    5 am
     9    9   18 1
    10    8    9 1
    11    5   11 1
    12    5    6 2
    13    7   11 1
    14   17   18 1
    15   21   23 2
    16    7    8 1
    17    8   13 1
    18   17   19 1
    19   15   17 1
    20   20   21 1
    21   19   20 1
    22   21   24 1
    23   21   22 1
    24   13   15 2
    25   13   14 1
    26   15   16 1
    27    2   25 1
    28    3   26 1
    29    3   27 1
    30    3   28 1
    31    4   29 1
    32    7   30 1
    33    8   31 1
    34    9   32 1
    35   10   33 1
    36   14   34 1
    37   16   35 1
    38   17   36 1
    39   19   37 1
    40   19   38 1
