@<TRIPOS>MOLECULE
*****
   70    74     0     0     0
SMALL
USER_CHARGES

@<TRIPOS>ATOM
      1 P1         35.0040   15.6010    7.3850 P.3       1 <0>         1.4424
      2 O1         35.8920   15.9400    6.2660 O.2       1 <0>        -0.9500
      3 O2         34.6990   14.1230    7.5670 O.3       1 <0>        -0.9500
      4 O3         35.6610   16.2160    8.7030 O.3       1 <0>        -0.5512
      5 C1         35.1700   15.9060    9.9870 C.3       1 <0>         0.2800
      6 C2         36.3650   15.7790   10.9120 C.3       1 <0>         0.2800
      7 O4         35.9140   15.5870   12.2380 O.3       1 <0>        -0.5600
      8 C3         37.2560   14.5770   10.5720 C.3       1 <0>         0.2800
      9 O5         38.5640   14.9900   10.2020 O.3       1 <0>        -0.6800
     10 C4         37.2350   13.7390   11.8490 C.3       1 <0>         0.2800
     11 O6         38.4350   13.0590   12.1490 O.3       1 <0>        -0.6800
     12 C5         36.9120   14.8170   12.8680 C.3       1 <0>         0.5356
     13 N1         36.4700   14.3780   14.1950 N.pl3     1 <0>         0.0476
     14 C6         35.7360   13.2890   14.5800 C.2       1 <0>         0.0365
     15 N2         35.5940   13.3290   15.9260 N.2       1 <0>        -0.5653
     16 C7         36.2250   14.4310   16.4000 C.ar      1 <0>         0.2272
     17 C8         36.4070   14.9840   17.6690 C.ar      1 <0>         0.4100
     18 N3         35.9120   14.4060   18.7540 N.pl3     1 <0>        -0.9000
     19 N4         37.1170   16.1570   17.7960 N.ar      1 <0>        -0.6200
     20 C9         37.6540   16.7640   16.6790 C.ar      1 <0>         0.4700
     21 N5         37.4810   16.2330   15.4300 N.ar      1 <0>        -0.5670
     22 C10        36.7820   15.0840   15.3090 C.ar      1 <0>         0.1054
     23 O7         33.5880   16.3560    7.2630 O.3       1 <0>        -0.5424
     24 P2         33.2650   17.8450    6.7380 P.3       1 <0>         1.4424
     25 O8         34.2600   18.8010    7.2750 O.3       1 <0>        -0.9500
     26 O9         32.9960   17.8230    5.2870 O.2       1 <0>        -0.9500
     27 O10        31.8530   18.0470    7.4690 O.3       1 <0>        -0.5512
     28 C11        31.8300   18.1480    8.8730 C.3       1 <0>         0.2800
     29 C12        30.4070   18.1320    9.4150 C.3       1 <0>         0.2800
     30 O11        29.6940   19.2590    8.9400 O.3       1 <0>        -0.5600
     31 C13        29.6010   16.9060    8.9990 C.3       1 <0>         0.2800
     32 O12        28.8440   16.4480   10.1020 O.3       1 <0>        -0.6800
     33 C14        28.7030   17.4340    7.9060 C.3       1 <0>         0.2800
     34 O13        27.5390   16.6570    7.7430 O.3       1 <0>        -0.6800
     35 C15        28.4450   18.8370    8.4490 C.3       1 <0>         0.7680
     36 N6         27.9370   19.8450    7.5010 N.ar      1 <0>        -0.2100
     37 C16        27.0600   20.7620    7.9850 C.ar      1 <0>         0.2110
     38 C17        26.5680   21.7470    7.1570 C.ar      1 <0>         0.0862
     39 C18        25.6040   22.7390    7.7110 C.2       1 <0>         0.5438
     40 O14        25.0770   23.6600    6.8470 O.2       1 <0>        -0.5700
     41 N7         25.2410   22.7640    8.9780 N.am      1 <0>        -0.8000
     42 C19        26.9810   21.7970    5.8270 C.ar      1 <0>        -0.1500
     43 C20        27.8880   20.8580    5.3530 C.ar      1 <0>        -0.1500
     44 C21        28.3680   19.8850    6.2100 C.ar      1 <0>         0.2110
     45 H1         34.5007   16.7045   10.3398 H         1 <0>         0.0000
     46 H2         34.5956   14.9681    9.9657 H         1 <0>         0.0000
     47 H3         36.9480   16.7043   10.7941 H         1 <0>         0.0000
     48 H4         36.9003   14.0041    9.7029 H         1 <0>         0.0000
     49 H5         38.6122   15.0822    9.2577 H         1 <0>         0.4000
     50 H6         36.5292   12.8969   11.7972 H         1 <0>         0.0000
     51 H7         38.9218   12.9062   11.3476 H         1 <0>         0.4000
     52 H8         37.8386   15.3555   13.1157 H         1 <0>         0.0000
     53 H9         35.3386   12.5290   13.9236 H         1 <0>         0.1500
     54 H10        35.7873   13.4285   18.5841 H         1 <0>         0.4000
     55 H11        36.5450   14.5334   19.5176 H         1 <0>         0.4000
     56 H12        38.2217   17.6757   16.7930 H         1 <0>         0.1500
     57 H13        32.3796   17.2950    9.2977 H         1 <0>         0.0000
     58 H14        32.2960   19.1030    9.1572 H         1 <0>         0.0000
     59 H15        30.5179   18.1290   10.5094 H         1 <0>         0.0000
     60 H16        30.2158   16.0581    8.6628 H         1 <0>         0.0000
     61 H17        29.4126   16.3453   10.8561 H         1 <0>         0.4000
     62 H18        29.1249   17.4150    6.8903 H         1 <0>         0.0000
     63 H19        27.1528   16.4821    8.5932 H         1 <0>         0.4000
     64 H20        27.6342   18.7634    9.1888 H         1 <0>         0.0000
     65 H21        26.7485   20.7191    9.0182 H         1 <0>         0.1500
     66 H22        24.5912   23.5152    9.0935 H         1 <0>         0.3700
     67 H23        25.5584   22.1432    9.6949 H         1 <0>         0.3700
     68 H24        26.5977   22.5621    5.1681 H         1 <0>         0.1500
     69 H25        28.2154   20.8876    4.3242 H         1 <0>         0.1500
     70 H26        29.0837   19.1578    5.8560 H         1 <0>         0.1500
@<TRIPOS>BOND
     1   24   26 2
     2   42   43 ar
     3   43   44 ar
     4   38   42 ar
     5   36   44 ar
     6    1    2 2
     7   23   24 1
     8   24   25 1
     9   24   27 1
    10   39   40 2
    11   38   39 1
    12   37   38 ar
    13    1   23 1
    14    1    3 1
    15    1    4 1
    16   27   28 1
    17   36   37 ar
    18   35   36 1
    19   39   41 am
    20   33   34 1
    21   33   35 1
    22   31   33 1
    23   30   35 1
    24    4    5 1
    25   28   29 1
    26   29   30 1
    27   29   31 1
    28   31   32 1
    29    5    6 1
    30    8    9 1
    31    6    8 1
    32    8   10 1
    33    6    7 1
    34   10   11 1
    35   10   12 1
    36    7   12 1
    37   12   13 1
    38   13   14 1
    39   13   22 1
    40   14   15 2
    41   21   22 ar
    42   16   22 ar
    43   20   21 ar
    44   15   16 1
    45   16   17 ar
    46   19   20 ar
    47   17   19 ar
    48   17   18 1
    49    5   45 1
    50    5   46 1
    51    6   47 1
    52    8   48 1
    53    9   49 1
    54   10   50 1
    55   11   51 1
    56   12   52 1
    57   14   53 1
    58   18   54 1
    59   18   55 1
    60   20   56 1
    61   28   57 1
    62   28   58 1
    63   29   59 1
    64   31   60 1
    65   32   61 1
    66   33   62 1
    67   34   63 1
    68   35   64 1
    69   37   65 1
    70   41   66 1
    71   41   67 1
    72   42   68 1
    73   43   69 1
    74   44   70 1
