@<TRIPOS>MOLECULE
*****
   41    43     0     0     0
SMALL
USER_CHARGES

@<TRIPOS>ATOM
      1 C1          6.6060   -2.2380   56.5000 C.ar      1 <0>        -0.1435
      2 C2          5.5730   -3.1020   56.9150 C.ar      1 <0>        -0.1500
      3 C3          5.3700   -3.4150   58.2820 C.ar      1 <0>         0.0825
      4 C4          6.2130   -2.8450   59.2510 C.ar      1 <0>         0.0825
      5 C5          7.2460   -1.9780   58.8460 C.ar      1 <0>        -0.1500
      6 C6          7.4360   -1.6820   57.4850 C.ar      1 <0>        -0.1500
      7 C7          6.8450   -1.8900   55.0180 C.3       1 <0>         0.1435
      8 C8          6.1720   -0.6170   54.6520 C.3       1 <0>         0.0610
      9 C9          4.8720   -1.1170   54.1110 C.2       1 <0>         0.5690
     10 O1          3.9180   -0.3930   53.9070 O.2       1 <0>        -0.5700
     11 N1          4.9910   -2.4120   53.7610 N.am      1 <0>        -0.7301
     12 C10         6.3120   -2.9570   54.0260 C.3       1 <0>         0.3001
     13 O2          4.3450   -4.2760   58.7130 O.3       1 <0>        -0.3625
     14 C11         3.3870   -4.6420   57.6730 C.3       1 <0>         0.2800
     15 C12         2.3250   -4.0920   58.3830 C.3       1 <0>         0.0000
     16 C13         1.5720   -5.2180   59.1170 C.3       1 <0>         0.0000
     17 C14         2.4490   -6.4800   58.8840 C.3       1 <0>         0.0000
     18 C15         3.1890   -6.1660   57.5670 C.3       1 <0>         0.0000
     19 O3          5.9920   -3.1670   60.5880 O.3       1 <0>        -0.3625
     20 C16         6.6000   -2.4920   61.7080 C.3       1 <0>         0.2800
     21 H1          4.9198   -3.5364   56.1727 H         1 <0>         0.1500
     22 H2          7.8971   -1.5372   59.5864 H         1 <0>         0.1500
     23 H3          8.2341   -1.0156   57.1928 H         1 <0>         0.1500
     24 H4          7.9396   -1.8247   54.9306 H         1 <0>         0.0000
     25 H5          6.7415   -0.0438   53.9056 H         1 <0>         0.0000
     26 H6          6.0659    0.0892   55.4887 H         1 <0>         0.0000
     27 H7          4.2460   -2.9446   53.3595 H         1 <0>         0.3700
     28 H8          6.2774   -3.9660   54.4628 H         1 <0>         0.0000
     29 H9          6.9359   -3.1092   53.1329 H         1 <0>         0.0000
     30 H10         3.5988   -4.3342   56.6384 H         1 <0>         0.0000
     31 H11         2.7076   -3.3658   59.1153 H         1 <0>         0.0000
     32 H12         1.6415   -3.5803   57.6895 H         1 <0>         0.0000
     33 H13         1.4698   -4.9960   60.1895 H         1 <0>         0.0000
     34 H14         0.5452   -5.3472   58.7441 H         1 <0>         0.0000
     35 H15         1.8341   -7.3877   58.7947 H         1 <0>         0.0000
     36 H16         3.1346   -6.6826   59.7200 H         1 <0>         0.0000
     37 H17         2.5978   -6.4463   56.6827 H         1 <0>         0.0000
     38 H18         4.1271   -6.7266   57.4419 H         1 <0>         0.0000
     39 H19         6.7548   -3.2082   62.5284 H         1 <0>         0.0000
     40 H20         7.5690   -2.0718   61.4006 H         1 <0>         0.0000
     41 H21         5.9399   -1.6810   62.0493 H         1 <0>         0.0000
@<TRIPOS>BOND
     1   11   12 1
     2    9   11 am
     3    9   10 2
     4    7   12 1
     5    8    9 1
     6    7    8 1
     7    1    7 1
     8    1    2 ar
     9    1    6 ar
    10    2    3 ar
    11    5    6 ar
    12   14   18 1
    13   17   18 1
    14   14   15 1
    15   13   14 1
    16    3   13 1
    17    3    4 ar
    18   15   16 1
    19    4    5 ar
    20   16   17 1
    21    4   19 1
    22   19   20 1
    23    2   21 1
    24    5   22 1
    25    6   23 1
    26    7   24 1
    27    8   25 1
    28    8   26 1
    29   11   27 1
    30   12   28 1
    31   12   29 1
    32   14   30 1
    33   15   31 1
    34   15   32 1
    35   16   33 1
    36   16   34 1
    37   17   35 1
    38   17   36 1
    39   18   37 1
    40   18   38 1
    41   20   39 1
    42   20   40 1
    43   20   41 1
