@<TRIPOS>MOLECULE
*****
   30    30     0     0     0
SMALL
USER_CHARGES

@<TRIPOS>ATOM
      1 C1         12.6080   30.9290   17.7100 C.3       1 <0>         0.5600
      2 C2         11.0870   31.0850   17.5680 C.3       1 <0>         0.3001
      3 C3         10.4680   29.8160   18.0890 C.3       1 <0>         0.2800
      4 C4         10.9470   28.6320   17.2770 C.3       1 <0>         0.2800
      5 C5         12.4850   28.5820   17.2740 C.3       1 <0>         0.2800
      6 C6         12.9950   27.5680   16.2410 C.3       1 <0>         0.2800
      7 C7         10.4770   33.3870   17.8860 C.2       1 <0>         0.5690
      8 C8          9.9650   34.4270   18.8630 C.3       1 <0>         0.0610
      9 N1         10.6320   32.1870   18.4280 N.am      1 <0>        -0.7301
     10 O1         13.0430   30.9260   18.7950 O.3       1 <0>        -0.6800
     11 O2          9.0350   29.8390   18.0880 O.3       1 <0>        -0.6800
     12 O3         10.4470   27.4390   17.8560 O.3       1 <0>        -0.6800
     13 O4         13.0090   29.8620   16.8690 O.3       1 <0>        -0.5600
     14 O5         14.4120   27.4390   16.4030 O.3       1 <0>        -0.6800
     15 O6         10.6910   33.6460   16.7070 O.2       1 <0>        -0.5700
     16 H1         13.0846   31.8588   17.3660 H         1 <0>         0.0000
     17 H2         10.8114   31.2844   16.5219 H         1 <0>         0.0000
     18 H3         10.7907   29.7247   19.1366 H         1 <0>         0.0000
     19 H4         10.5851   28.7328   16.2432 H         1 <0>         0.0000
     20 H5         12.8084   28.3051   18.2883 H         1 <0>         0.0000
     21 H6         12.7649   27.9208   15.2248 H         1 <0>         0.0000
     22 H7         12.5056   26.5944   16.3913 H         1 <0>         0.0000
     23 H8          9.8410   33.9689   19.8554 H         1 <0>         0.0000
     24 H9         10.6866   35.2546   18.9289 H         1 <0>         0.0000
     25 H10         8.9957   34.8122   18.5135 H         1 <0>         0.0000
     26 H11        10.4439   32.0352   19.3984 H         1 <0>         0.3700
     27 H12        13.9922   30.9252   18.7561 H         1 <0>         0.4000
     28 H13         8.7173   29.8441   18.9833 H         1 <0>         0.4000
     29 H14        10.3351   26.7810   17.1799 H         1 <0>         0.4000
     30 H15        14.8275   27.4104   15.5492 H         1 <0>         0.4000
@<TRIPOS>BOND
     1    6   14 1
     2    5    6 1
     3    7   15 2
     4    5   13 1
     5    1   13 1
     6    4    5 1
     7    4   12 1
     8    3    4 1
     9    1    2 1
    10    2    3 1
    11    2    9 1
    12    1   10 1
    13    7    9 am
    14    7    8 1
    15    3   11 1
    16    1   16 1
    17    2   17 1
    18    3   18 1
    19    4   19 1
    20    5   20 1
    21    6   21 1
    22    6   22 1
    23    8   23 1
    24    8   24 1
    25    8   25 1
    26    9   26 1
    27   10   27 1
    28   11   28 1
    29   12   29 1
    30   14   30 1
