@<TRIPOS>MOLECULE
*****
   12    12     0     0     0
SMALL
USER_CHARGES

@<TRIPOS>ATOM
      1 N1         -6.0510   -8.0800   26.6020 N.am      1 <0>        -0.5390
      2 C1         -5.9480   -7.5090   25.3400 C.2       1 <0>         0.6900
      3 O1         -6.9130   -7.5200   24.5960 O.2       1 <0>        -0.5700
      4 N2         -4.7140   -6.9600   25.0400 N.am      1 <0>        -0.4900
      5 C2         -3.5810   -6.9320   25.8810 C.2       1 <0>         0.6156
      6 O2         -2.5630   -6.4070   25.4630 O.2       1 <0>        -0.5700
      7 C3         -3.7840   -7.5480   27.1660 C.2       1 <0>        -0.1356
      8 C4         -4.9590   -8.0820   27.4790 C.2       1 <0>        -0.0410
      9 H1         -6.9150   -8.4945   26.8878 H         1 <0>         0.3700
     10 H2         -4.6150   -6.5413   24.1373 H         1 <0>         0.3700
     11 H3         -2.9749   -7.5761   27.8808 H         1 <0>         0.1500
     12 H4         -5.0775   -8.5372   28.4512 H         1 <0>         0.1500
@<TRIPOS>BOND
     1    1    2 am
     2    1    8 1
     3    2    3 2
     4    2    4 am
     5    4    5 am
     6    5    6 2
     7    5    7 1
     8    7    8 2
     9    1    9 1
    10    4   10 1
    11    7   11 1
    12    8   12 1
