@<TRIPOS>MOLECULE
*****
   23    22     0     0     0
SMALL
USER_CHARGES

@<TRIPOS>ATOM
      1 N1         53.3140   80.0350   -4.4530 N.am      1 <0>        -0.8000
      2 C1         52.7360   80.2950   -3.2630 C.2       1 <0>         0.6900
      3 O1         52.3220   81.4240   -3.0230 O.2       1 <0>        -0.5700
      4 N2         52.6080   79.2910   -2.3500 N.am      1 <0>        -0.7301
      5 C2         52.0920   79.5120   -0.9810 C.3       1 <0>         0.1941
      6 C3         52.6050   78.3720   -0.0750 C.3       1 <0>         0.0000
      7 C4         52.1950   78.5570    1.4080 C.3       1 <0>         0.2300
      8 S1         52.9160   80.0720    2.1280 S.3       1 <0>        -0.4600
      9 C5         54.6810   79.8160    1.7900 C.3       1 <0>         0.2300
     10 C6         50.5700   79.5310   -0.9960 C.2       1 <0>         0.9060
     11 O2         49.9460   78.7450   -1.6780 O.co2     1 <0>        -0.9000
     12 O3         49.9260   80.4230   -0.2450 O.co2     1 <0>        -0.9000
     13 H1         53.3400   80.8444   -5.0397 H         1 <0>         0.3700
     14 H2         53.6736   79.1401   -4.7172 H         1 <0>         0.3700
     15 H3         52.8744   78.3649   -2.6170 H         1 <0>         0.3700
     16 H4         52.4447   80.4801   -0.5958 H         1 <0>         0.0000
     17 H5         52.1818   77.4233   -0.4368 H         1 <0>         0.0000
     18 H6         53.7040   78.3772   -0.1211 H         1 <0>         0.0000
     19 H7         51.0987   78.6271    1.4645 H         1 <0>         0.0000
     20 H8         52.5708   77.6943    1.9777 H         1 <0>         0.0000
     21 H9         54.8430   79.7642    0.7032 H         1 <0>         0.0000
     22 H10        55.2593   80.6535    2.2073 H         1 <0>         0.0000
     23 H11        55.0103   78.8750    2.2548 H         1 <0>         0.0000
@<TRIPOS>BOND
     1    1    2 am
     2    2    3 2
     3    2    4 am
     4    4    5 1
     5    5    6 1
     6    5   10 1
     7    6    7 1
     8    7    8 1
     9    8    9 1
    10   10   11 2
    11   10   12 1
    12    1   13 1
    13    1   14 1
    14    4   15 1
    15    5   16 1
    16    6   17 1
    17    6   18 1
    18    7   19 1
    19    7   20 1
    20    9   21 1
    21    9   22 1
    22    9   23 1
