@<TRIPOS>MOLECULE
*****
    9     8     0     0     0
SMALL
USER_CHARGES

@<TRIPOS>ATOM
      1 C1         27.3810   49.6880   60.3810 C.3       1 <0>        -0.2120
      2 C2         27.2380   50.6550   59.2030 C.2       1 <0>         0.9060
      3 C3         28.3490   50.1070   61.4090 C.2       1 <0>         0.9060
      4 O1         26.8840   51.8720   59.2650 O.co2     1 <0>        -0.9000
      5 O2         27.5120   50.1500   58.0800 O.co2     1 <0>        -0.9000
      6 O3         27.9220   50.0970   62.6030 O.co2     1 <0>        -0.9000
      7 O4         29.4540   50.2700   60.9140 O.co2     1 <0>        -0.9000
      8 H1         26.3965   49.5997   60.8637 H         1 <0>         0.0000
      9 H2         27.7561   48.7413   59.9651 H         1 <0>         0.0000
@<TRIPOS>BOND
     1    1    2 1
     2    1    3 1
     3    2    4 2
     4    2    5 1
     5    3    6 2
     6    3    7 1
     7    1    8 1
     8    1    9 1
