@<TRIPOS>MOLECULE
*****
   33    35     0     0     0
SMALL
USER_CHARGES

@<TRIPOS>ATOM
      1 N1          0.5640   21.0700   38.4730 N.2       1 <0>        -0.6960
      2 C1          1.5320   20.6900   39.3050 C.2       1 <0>         0.6010
      3 N2          2.6840   20.2180   38.8590 N.2       1 <0>        -0.6610
      4 C2          2.9090   20.1010   37.5230 C.2       1 <0>         0.5000
      5 C3          1.9770   20.4680   36.6300 C.2       1 <0>         0.3890
      6 C4          0.7270   20.9960   37.0950 C.3       1 <0>         0.5870
      7 O1          0.5480   22.3630   36.5960 O.3       1 <0>        -0.6800
      8 N3          2.4740   20.2310   35.3860 N.2       1 <0>        -0.6960
      9 C5          3.7140   19.7320   35.5290 C.3       1 <0>         0.6151
     10 N4          3.9810   19.6230   36.8430 N.pl3     1 <0>        -0.7882
     11 C6          5.1300   18.9680   37.4310 C.3       1 <0>         0.6491
     12 C7          5.4900   17.6840   36.5840 C.3       1 <0>         0.2800
     13 O2          5.7740   16.5650   37.4380 O.3       1 <0>        -0.6800
     14 C8          6.7010   18.0020   35.6970 C.3       1 <0>         0.2800
     15 O3          7.5270   16.8440   35.5170 O.3       1 <0>        -0.6800
     16 C9          7.2890   19.0350   36.8220 C.3       1 <0>         0.2800
     17 O4          6.2810   19.7910   37.3660 O.3       1 <0>        -0.5600
     18 C10         8.3620   19.9700   36.2610 C.3       1 <0>         0.2800
     19 O5          8.0020   20.3970   34.9250 O.3       1 <0>        -0.6800
     20 H1          1.3722   20.7693   40.3702 H         1 <0>         0.0600
     21 H2         -0.0109   20.2751   36.7131 H         1 <0>         0.0000
     22 H3          0.5093   22.9657   37.3293 H         1 <0>         0.4000
     23 H4          3.7745   18.7421   35.0531 H         1 <0>         0.0000
     24 H5          4.4459   20.3991   35.0501 H         1 <0>         0.0000
     25 H6          4.8697   18.7350   38.4740 H         1 <0>         0.0000
     26 H7          4.6286   17.4108   35.9568 H         1 <0>         0.0000
     27 H8          5.8367   15.7746   36.9147 H         1 <0>         0.4000
     28 H9          6.5683   18.3504   34.6621 H         1 <0>         0.0000
     29 H10         7.7097   16.7254   34.5923 H         1 <0>         0.4000
     30 H11         7.7521   18.4084   37.5984 H         1 <0>         0.0000
     31 H12         9.3240   19.4377   36.2248 H         1 <0>         0.0000
     32 H13         8.4454   20.8534   36.9111 H         1 <0>         0.0000
     33 H14         7.9232   21.3435   34.9050 H         1 <0>         0.4000
@<TRIPOS>BOND
     1   18   19 1
     2    8    9 1
     3    5    8 2
     4   14   15 1
     5    9   10 1
     6   12   14 1
     7   14   16 1
     8   16   18 1
     9   11   12 1
    10   12   13 1
    11    6    7 1
    12    5    6 1
    13    4    5 1
    14   16   17 1
    15   10   11 1
    16    4   10 1
    17    1    6 1
    18   11   17 1
    19    3    4 2
    20    1    2 2
    21    2    3 1
    22    2   20 1
    23    6   21 1
    24    7   22 1
    25    9   23 1
    26    9   24 1
    27   11   25 1
    28   12   26 1
    29   13   27 1
    30   14   28 1
    31   15   29 1
    32   16   30 1
    33   18   31 1
    34   18   32 1
    35   19   33 1
