@<TRIPOS>MOLECULE
*****
   36    36     0     0     0
SMALL
USER_CHARGES

@<TRIPOS>ATOM
      1 C1         14.7800   25.2320   17.6690 C.3       1 <0>         0.2800
      2 O1         14.9640   25.3280   19.0990 O.3       1 <0>        -0.5512
      3 C2         14.8250   23.7530   17.2510 C.3       1 <0>         0.2800
      4 O2         16.0550   23.2120   17.7410 O.3       1 <0>        -0.6800
      5 C3         14.7490   23.6280   15.7390 C.3       1 <0>         0.2800
      6 O3         14.7900   22.2520   15.3880 O.3       1 <0>        -0.5512
      7 C4         15.8750   24.3990   15.0720 C.3       1 <0>         0.2800
      8 O4         15.7390   24.2660   13.6470 O.3       1 <0>        -0.5512
      9 C5         15.8000   25.8400   15.5070 C.3       1 <0>         0.2800
     10 O5         16.8860   26.5860   14.9220 O.3       1 <0>        -0.5512
     11 C6         15.9380   25.9840   17.0110 C.3       1 <0>         0.2800
     12 O6         15.8710   27.3680   17.3700 O.3       1 <0>        -0.6800
     13 P1         13.7380   25.1680   20.1450 P.3       1 <0>         1.3712
     14 O7         13.3910   26.6010   20.6130 O.3       1 <0>        -1.0333
     15 O8         12.5880   24.5320   19.4580 O.2       1 <0>        -1.0333
     16 O9         14.2970   24.3680   21.2610 O.3       1 <0>        -1.0333
     17 P2         13.4700   21.4060   14.9960 P.3       1 <0>         1.3712
     18 O10        12.8650   22.1110   13.7070 O.2       1 <0>        -1.0333
     19 O11        12.4430   21.4860   16.0200 O.3       1 <0>        -1.0333
     20 O12        13.9830   20.0940   14.4970 O.3       1 <0>        -1.0333
     21 P3         16.9470   23.7430   12.7150 P.3       1 <0>         1.3712
     22 O13        16.2280   23.3490   11.4280 O.2       1 <0>        -1.0333
     23 O14        17.9160   24.9110   12.5240 O.3       1 <0>        -1.0333
     24 O15        17.6650   22.6220   13.4220 O.3       1 <0>        -1.0333
     25 P4         16.6350   27.7740   13.8640 P.3       1 <0>         1.3712
     26 O16        17.7690   28.7600   14.1660 O.3       1 <0>        -1.0333
     27 O17        15.2620   28.3000   14.0300 O.3       1 <0>        -1.0333
     28 O18        16.8310   27.1620   12.4850 O.2       1 <0>        -1.0333
     29 H1         13.8131   25.6593   17.3647 H         1 <0>         0.0000
     30 H2         13.9688   23.2031   17.6688 H         1 <0>         0.0000
     31 H3         16.6591   23.0921   17.0177 H         1 <0>         0.4000
     32 H4         13.8041   24.0643   15.3828 H         1 <0>         0.0000
     33 H5         16.8588   24.0035   15.3647 H         1 <0>         0.0000
     34 H6         14.8193   26.2171   15.1814 H         1 <0>         0.0000
     35 H7         16.9024   25.5741   17.3454 H         1 <0>         0.0000
     36 H8         15.8562   27.4498   18.3164 H         1 <0>         0.4000
@<TRIPOS>BOND
     1   21   22 2
     2   25   28 2
     3   21   23 1
     4   21   24 1
     5    8   21 1
     6    7    8 1
     7   17   18 2
     8   25   27 1
     9   25   26 1
    10   10   25 1
    11   17   20 1
    12    9   10 1
    13    6   17 1
    14   17   19 1
    15    7    9 1
    16    5    7 1
    17    5    6 1
    18    9   11 1
    19    3    5 1
    20   11   12 1
    21    1   11 1
    22    1    3 1
    23    3    4 1
    24    1    2 1
    25    2   13 1
    26   13   15 2
    27   13   14 1
    28   13   16 1
    29    1   29 1
    30    3   30 1
    31    4   31 1
    32    5   32 1
    33    7   33 1
    34    9   34 1
    35   11   35 1
    36   12   36 1
