@<TRIPOS>MOLECULE
*****
   35    36     0     0     0
SMALL
USER_CHARGES

@<TRIPOS>ATOM
      1 C1         15.6400   -9.4110   18.1200 C.ar      1 <0>        -0.1500
      2 C2         15.9720  -10.3230   15.5230 C.ar      1 <0>        -0.1500
      3 C3         16.5250   -8.7630   17.2660 C.ar      1 <0>         0.0825
      4 C4         14.9520  -10.5000   17.6370 C.ar      1 <0>         0.1900
      5 C5         15.0900  -10.9890   16.3460 C.ar      1 <0>        -0.1500
      6 C6         16.6860   -9.2100   15.9390 C.ar      1 <0>         0.0862
      7 Br1        14.8790   -3.7460    9.6860 Br        1 <0>        -0.1110
      8 F1         14.1120  -11.1350   18.4840 F         1 <0>        -0.1900
      9 C7         17.5610   -8.5030   14.9740 C.2       1 <0>         0.3538
     10 C8         18.2490   -6.3210   14.1510 C.3       1 <0>         0.4436
     11 F2         19.1990   -4.3570   12.4630 F         1 <0>        -0.1900
     12 O1         17.3380   -7.7550   17.6750 O.3       1 <0>        -0.3625
     13 S1         18.5130   -9.3640   13.8880 S.2       1 <0>        -0.3800
     14 N1         17.4890   -7.1870   15.0190 N.pl3     1 <0>        -0.7301
     15 C9         16.8200   -6.8740   18.6680 C.3       1 <0>         0.1740
     16 C10        17.4200   -5.7730   13.0230 C.ar      1 <0>        -0.1435
     17 C11        15.9480   -4.5980   10.9740 C.ar      1 <0>         0.1110
     18 C12        16.1200   -6.1790   12.7580 C.ar      1 <0>        -0.1500
     19 C13        17.9320   -4.7820   12.2100 C.ar      1 <0>         0.1900
     20 C14        17.2360   -4.1760   11.1900 C.ar      1 <0>        -0.1500
     21 C15        15.3660   -5.6010   11.7400 C.ar      1 <0>        -0.1500
     22 C16        15.6720   -6.0140   18.1320 C.2       1 <0>         0.9060
     23 O2         14.9550   -5.4940   19.0320 O.co2     1 <0>        -0.9000
     24 O3         15.5530   -5.8820   16.9060 O.co2     1 <0>        -0.9000
     25 H1         15.4966   -9.0691   19.1343 H         1 <0>         0.1500
     26 H2         16.1125  -10.6823   14.5142 H         1 <0>         0.1500
     27 H3         14.5338  -11.8489   16.0031 H         1 <0>         0.1500
     28 H4         19.0825   -6.8980   13.7240 H         1 <0>         0.0000
     29 H5         18.6072   -5.4713   14.7508 H         1 <0>         0.0000
     30 H6         16.8763   -6.7680   15.6891 H         1 <0>         0.3700
     31 H7         16.4451   -7.4751   19.5095 H         1 <0>         0.0000
     32 H8         17.6313   -6.2010   18.9825 H         1 <0>         0.0000
     33 H9         15.6816   -6.9636   13.3568 H         1 <0>         0.1500
     34 H10        17.6838   -3.4014   10.5851 H         1 <0>         0.1500
     35 H11        14.3532   -5.9244   11.5502 H         1 <0>         0.1500
@<TRIPOS>BOND
     1    7   17 1
     2   17   20 ar
     3   17   21 ar
     4   19   20 ar
     5   18   21 ar
     6   11   19 1
     7   16   19 ar
     8   16   18 ar
     9   10   16 1
    10    9   13 2
    11   10   14 1
    12    9   14 1
    13    6    9 1
    14    2    6 ar
    15    2    5 ar
    16    3    6 ar
    17    4    5 ar
    18   22   24 2
    19    3   12 1
    20    1    3 ar
    21    1    4 ar
    22    4    8 1
    23   12   15 1
    24   15   22 1
    25   22   23 1
    26    1   25 1
    27    2   26 1
    28    5   27 1
    29   10   28 1
    30   10   29 1
    31   14   30 1
    32   15   31 1
    33   15   32 1
    34   18   33 1
    35   20   34 1
    36   21   35 1
