@<TRIPOS>MOLECULE
*****
   51    53     0     0     0
SMALL
USER_CHARGES

@<TRIPOS>ATOM
      1 N1         52.2040  -29.8250   18.2920 N.am      1 <0>        -0.5470
      2 C1         51.1030  -29.0640   18.1150 C.2       1 <0>         0.6900
      3 O1         49.9100  -29.4130   18.1110 O.2       1 <0>        -0.5700
      4 N2         51.3010  -27.6180   17.8950 N.am      1 <0>        -0.4900
      5 C2         52.5990  -27.0140   17.8650 C.2       1 <0>         0.5438
      6 O2         52.5900  -25.7930   17.6690 O.2       1 <0>        -0.5700
      7 C3         53.6760  -27.8580   18.0600 C.ar      1 <0>         0.3962
      8 N3         54.8670  -27.3430   18.0450 N.ar      1 <0>        -0.6200
      9 C4         55.9860  -28.1240   18.4310 C.ar      1 <0>         0.3100
     10 C5         57.2830  -27.5760   18.6360 C.ar      1 <0>        -0.1500
     11 C6         58.3930  -28.4320   19.0310 C.ar      1 <0>        -0.1435
     12 C7         59.7640  -27.8150   19.2560 C.3       1 <0>         0.1435
     13 C8         58.1840  -29.8720   19.2090 C.ar      1 <0>        -0.1435
     14 C9         59.3190  -30.7360   19.6000 C.3       1 <0>         0.1435
     15 C10        56.9280  -30.4090   19.0170 C.ar      1 <0>        -0.1500
     16 C11        55.7570  -29.5760   18.6240 C.ar      1 <0>         0.3610
     17 N4         54.5300  -30.2000   18.4710 N.ar      1 <0>        -0.2100
     18 C12        53.4660  -29.3580   18.2830 C.ar      1 <0>         0.4780
     19 C13        54.2090  -31.5960   18.7540 C.3       1 <0>         0.4880
     20 C14        53.8430  -31.9060   20.1970 C.3       1 <0>         0.2800
     21 O3         54.6270  -31.1290   21.0840 O.3       1 <0>        -0.6800
     22 C15        54.1150  -33.3710   20.3540 C.3       1 <0>         0.2800
     23 O4         53.1530  -34.1390   19.5600 O.3       1 <0>        -0.6800
     24 C16        53.9510  -33.8680   21.8100 C.3       1 <0>         0.2800
     25 O5         54.5250  -35.1410   21.9420 O.3       1 <0>        -0.6800
     26 C17        52.4510  -33.8760   22.2420 C.3       1 <0>         0.2800
     27 O6         52.4520  -34.3150   23.6240 O.3       1 <0>        -0.5512
     28 P1         51.0800  -34.7140   24.2770 P.3       1 <0>         1.3712
     29 O7         50.1680  -33.5450   24.2680 O.3       1 <0>        -1.0333
     30 O8         50.4450  -35.8880   23.4770 O.2       1 <0>        -1.0333
     31 O9         51.3580  -35.1440   25.7130 O.3       1 <0>        -1.0333
     32 H1         52.0724  -30.8051   18.4403 H         1 <0>         0.3700
     33 H2         50.4976  -27.0377   17.7617 H         1 <0>         0.3700
     34 H3         57.4455  -26.5173   18.4976 H         1 <0>         0.1500
     35 H4         60.2631  -27.6660   18.2871 H         1 <0>         0.0000
     36 H5         59.6508  -26.8454   19.7629 H         1 <0>         0.0000
     37 H6         60.3703  -28.4873   19.8808 H         1 <0>         0.0000
     38 H7         59.9385  -30.9505   18.7167 H         1 <0>         0.0000
     39 H8         59.9274  -30.2211   20.3581 H         1 <0>         0.0000
     40 H9         58.9351  -31.6792   20.0161 H         1 <0>         0.0000
     41 H10        56.7886  -31.4708   19.1565 H         1 <0>         0.1500
     42 H11        53.3470  -31.8703   18.1282 H         1 <0>         0.0000
     43 H12        55.1243  -32.1681   18.5422 H         1 <0>         0.0000
     44 H13        52.7956  -31.6643   20.4307 H         1 <0>         0.0000
     45 H14        55.4736  -30.9550   20.6896 H         1 <0>         0.4000
     46 H15        55.1559  -33.5168   20.0297 H         1 <0>         0.0000
     47 H16        52.3747  -34.3053   20.0788 H         1 <0>         0.4000
     48 H17        54.4755  -33.1719   22.4811 H         1 <0>         0.0000
     49 H18        54.6548  -35.5212   21.0811 H         1 <0>         0.4000
     50 H19        52.0114  -32.8719   22.1501 H         1 <0>         0.0000
     51 H20        51.8465  -34.5378   21.6043 H         1 <0>         0.0000
@<TRIPOS>BOND
     1    5    6 2
     2    4    5 am
     3    5    7 1
     4    2    4 am
     5    7    8 ar
     6    8    9 ar
     7    7   18 ar
     8    2    3 2
     9    1    2 am
    10    1   18 1
    11   17   18 ar
    12    9   16 ar
    13    9   10 ar
    14   16   17 ar
    15   17   19 1
    16   15   16 ar
    17   10   11 ar
    18   19   20 1
    19   13   15 ar
    20   11   13 ar
    21   11   12 1
    22   13   14 1
    23   22   23 1
    24   20   22 1
    25   20   21 1
    26   22   24 1
    27   24   25 1
    28   24   26 1
    29   26   27 1
    30   28   30 2
    31   27   28 1
    32   28   29 1
    33   28   31 1
    34    1   32 1
    35    4   33 1
    36   10   34 1
    37   12   35 1
    38   12   36 1
    39   12   37 1
    40   14   38 1
    41   14   39 1
    42   14   40 1
    43   15   41 1
    44   19   42 1
    45   19   43 1
    46   20   44 1
    47   21   45 1
    48   22   46 1
    49   23   47 1
    50   24   48 1
    51   25   49 1
    52   26   50 1
    53   26   51 1
