@<TRIPOS>MOLECULE
*****
   10     9     0     0     0
SMALL
USER_CHARGES

@<TRIPOS>ATOM
      1 C1         11.2190  115.6730  180.8150 C.2       1 <0>         0.9060
      2 C2         12.7180  115.4960  180.9760 C.3       1 <0>        -0.1060
      3 C3         13.0880  114.3260  181.8710 C.3       1 <0>         0.0000
      4 O1         10.7580  116.2750  179.8580 O.co2     1 <0>        -0.9000
      5 O2         10.3650  115.2240  181.7270 O.co2     1 <0>        -0.9000
      6 H1         13.1533  115.3203  179.9812 H         1 <0>         0.0000
      7 H2         13.1088  116.4091  181.4487 H         1 <0>         0.0000
      8 H3         13.1775  113.4131  181.2638 H         1 <0>         0.0000
      9 H4         14.0484  114.5325  182.3659 H         1 <0>         0.0000
     10 H5         12.3060  114.1849  182.6316 H         1 <0>         0.0000
@<TRIPOS>BOND
     1    1    2 1
     2    1    4 2
     3    1    5 1
     4    2    3 1
     5    2    6 1
     6    2    7 1
     7    3    8 1
     8    3    9 1
     9    3   10 1
