@<TRIPOS>MOLECULE
*****
   27    28     0     0     0
SMALL
USER_CHARGES

@<TRIPOS>ATOM
      1 N1         81.7260   69.9810   -7.9430 N.ar      1 <0>        -0.6200
      2 C1         82.9260   69.9090   -8.6150 C.ar      1 <0>         0.1600
      3 C2         83.0690   69.2560   -9.8570 C.ar      1 <0>        -0.1435
      4 C3         81.9220   68.6110  -10.3710 C.ar      1 <0>        -0.1500
      5 C4         80.7050   68.6170   -9.6410 C.ar      1 <0>        -0.1500
      6 C5         80.6360   69.3450   -8.4410 C.ar      1 <0>         0.1600
      7 N2         84.7730   70.4880  -11.3170 N.4       1 <0>        -0.9590
      8 C6         84.3480   69.2120  -10.6390 C.3       1 <0>         0.6465
      9 C7         85.5370   68.7450   -9.8010 C.3       1 <0>         0.0000
     10 C8         86.7370   69.4340  -10.4240 C.3       1 <0>         0.0000
     11 C9         86.2330   70.6250  -11.2350 C.3       1 <0>         0.5030
     12 C10        84.5020   70.4860  -12.7560 C.3       1 <0>         0.5030
     13 H1         83.7950   70.3725   -8.1719 H         1 <0>         0.1500
     14 H2         81.9716   68.1097  -11.3263 H         1 <0>         0.1500
     15 H3         79.8459   68.0710  -10.0018 H         1 <0>         0.1500
     16 H4         79.6993   69.3991   -7.9061 H         1 <0>         0.1500
     17 H5         84.2650   71.2164  -10.8573 H         1 <0>         0.4500
     18 H6         84.0848   68.4884  -11.4246 H         1 <0>         0.0000
     19 H7         85.4170   69.0338   -8.7464 H         1 <0>         0.0000
     20 H8         85.6405   67.6499   -9.8006 H         1 <0>         0.0000
     21 H9         87.4215   69.7802   -9.6356 H         1 <0>         0.0000
     22 H10        87.2816   68.7341  -11.0749 H         1 <0>         0.0000
     23 H11        86.6767   70.6200  -12.2415 H         1 <0>         0.0000
     24 H12        86.5151   71.5757  -10.7590 H         1 <0>         0.0000
     25 H13        83.4150   70.4855  -12.9249 H         1 <0>         0.0000
     26 H14        84.9436   71.3837  -13.2133 H         1 <0>         0.0000
     27 H15        84.9439   69.5872  -13.2108 H         1 <0>         0.0000
@<TRIPOS>BOND
     1    1    2 ar
     2    1    6 ar
     3    2    3 ar
     4    3    4 ar
     5    3    8 1
     6    4    5 ar
     7    5    6 ar
     8    7    8 1
     9    7   11 1
    10    7   12 1
    11    8    9 1
    12    9   10 1
    13   10   11 1
    14    2   13 1
    15    4   14 1
    16    5   15 1
    17    6   16 1
    18    7   17 1
    19    8   18 1
    20    9   19 1
    21    9   20 1
    22   10   21 1
    23   10   22 1
    24   11   23 1
    25   11   24 1
    26   12   25 1
    27   12   26 1
    28   12   27 1
