@<TRIPOS>MOLECULE
*****
   70    72     0     0     0
SMALL
USER_CHARGES

@<TRIPOS>ATOM
      1 N1         16.2120   22.4760   13.7640 N.am      1 <0>        -0.4691
      2 C1         17.5930   22.4450   13.7440 C.2       1 <0>         0.6900
      3 N2         18.1550   21.2410   13.5830 N.am      1 <0>        -0.4900
      4 C2         17.4800   20.0880   13.4480 C.2       1 <0>         0.6156
      5 C3         15.9980   20.0940   13.5170 C.2       1 <0>        -0.1356
      6 C4         15.3690   21.2770   13.6650 C.2       1 <0>        -0.0410
      7 O1         18.2440   23.4640   13.8620 O.2       1 <0>        -0.5700
      8 O2         18.0410   19.0200   13.2560 O.2       1 <0>        -0.5700
      9 C5         15.5660   23.7680   13.9040 C.3       1 <0>         0.5801
     10 C6         14.9710   24.3190   12.6080 C.3       1 <0>         0.2800
     11 O3         15.8320   24.8070   11.6630 O.3       1 <0>        -0.6800
     12 C7         13.9770   25.2450   13.1490 C.3       1 <0>         0.2800
     13 C8         13.5180   24.5810   14.4400 C.3       1 <0>         0.2800
     14 O4         14.4730   23.6070   14.7550 O.3       1 <0>        -0.5600
     15 O5         14.4700   26.5830   13.1460 O.3       1 <0>        -0.6800
     16 C9         12.1490   23.8840   14.1000 C.3       1 <0>         0.2800
     17 O6         12.3870   22.9190   13.0080 O.3       1 <0>        -0.5512
     18 P1         11.1270   22.2350   12.4080 P.3       1 <0>         1.4424
     19 O7         10.6210   23.3790   11.5700 O.3       1 <0>        -0.9500
     20 O8         11.7600   21.1870   11.5360 O.2       1 <0>        -0.9500
     21 O9          9.9700   21.6480   13.1900 O.3       1 <0>        -0.5424
     22 P2         10.2390   20.8220   14.5030 P.3       1 <0>         1.4424
     23 O10         9.7550   21.5850   15.7190 O.3       1 <0>        -0.9500
     24 O11        11.6670   20.3330   14.6220 O.2       1 <0>        -0.9500
     25 C10         7.9870   19.8000   14.4190 C.3       1 <0>         0.5600
     26 C11         7.2160   18.4900   14.5370 C.3       1 <0>         0.3001
     27 C12         7.1880   17.6990   13.2540 C.3       1 <0>         0.2800
     28 C13         6.5300   18.7430   12.2600 C.3       1 <0>         0.2800
     29 C14         7.3260   20.0520   12.1350 C.3       1 <0>         0.2800
     30 C15         6.6360   21.1010   11.2520 C.3       1 <0>         0.2800
     31 C16         7.0700   18.2710   17.1010 C.2       1 <0>         0.5690
     32 C17         7.8370   17.2820   18.0270 C.3       1 <0>         0.0610
     33 N3          7.4450   18.0690   15.8840 N.am      1 <0>        -0.7301
     34 O12         9.3410   19.6300   14.1980 O.3       1 <0>        -0.5512
     35 O13         6.4300   16.6170   13.6330 O.3       1 <0>        -0.3567
     36 O14         6.3970   18.1700   10.9920 O.3       1 <0>        -0.6800
     37 O15         7.3640   20.5960   13.4440 O.3       1 <0>        -0.5600
     38 O16         5.4180   21.5780   11.7230 O.3       1 <0>        -0.6800
     39 O17         6.3060   19.0390   17.4930 O.2       1 <0>        -0.5700
     40 C18         6.3340   14.3740   14.2960 C.2       1 <0>         1.0500
     41 O18         6.6250   13.1460   14.1460 O.co2     1 <0>        -0.9000
     42 O19         5.5490   14.7500   15.2330 O.co2     1 <0>        -0.9000
     43 C19         6.9060   15.3820   13.3580 C.2       1 <0>        -0.1733
     44 C20         7.7640   15.0830   12.3590 C.2       1 <0>        -0.3000
     45 H1         19.1538   21.1967   13.5616 H         1 <0>         0.3700
     46 H2         15.4371   19.1735   13.4503 H         1 <0>         0.1500
     47 H3         14.2918   21.3406   13.7089 H         1 <0>         0.1500
     48 H4         16.3445   24.4582   14.2612 H         1 <0>         0.0000
     49 H5         14.5516   23.5393   11.9551 H         1 <0>         0.0000
     50 H6         15.3696   24.9201   10.8409 H         1 <0>         0.4000
     51 H7         13.0681   25.4095   12.5517 H         1 <0>         0.0000
     52 H8         13.4045   25.2835   15.2788 H         1 <0>         0.0000
     53 H9         14.5796   26.8826   14.0408 H         1 <0>         0.4000
     54 H10        11.4130   24.6370   13.7819 H         1 <0>         0.0000
     55 H11        11.7538   23.3667   14.9867 H         1 <0>         0.0000
     56 H12         7.9494   20.3185   15.3884 H         1 <0>         0.0000
     57 H13         6.1183   18.4221   14.5138 H         1 <0>         0.0000
     58 H14         8.1008   17.3175   12.7731 H         1 <0>         0.0000
     59 H15         5.5473   18.9977   12.6836 H         1 <0>         0.0000
     60 H16         8.3057   19.8276   11.6880 H         1 <0>         0.0000
     61 H17         6.4519   20.6374   10.2716 H         1 <0>         0.0000
     62 H18         7.3122   21.9682   11.2261 H         1 <0>         0.0000
     63 H19         8.0179   16.3400   17.4885 H         1 <0>         0.0000
     64 H20         8.7992   17.7266   18.3211 H         1 <0>         0.0000
     65 H21         7.2357   17.0805   18.9258 H         1 <0>         0.0000
     66 H22         8.1520   17.3618   15.8813 H         1 <0>         0.3700
     67 H23         6.3668   18.8561   10.3356 H         1 <0>         0.4000
     68 H24         5.4632   21.6868   12.6657 H         1 <0>         0.4000
     69 H25         8.0292   15.9655   11.7957 H         1 <0>         0.1500
     70 H26         8.1364   14.0909   12.1506 H         1 <0>         0.1500
@<TRIPOS>BOND
     1   28   36 1
     2   30   38 1
     3   29   30 1
     4   18   20 2
     5   18   19 1
     6   10   11 1
     7   28   29 1
     8   29   37 1
     9   27   28 1
    10   43   44 2
    11   17   18 1
    12   18   21 1
    13   10   12 1
    14    9   10 1
    15   16   17 1
    16   12   15 1
    17   12   13 1
    18   21   22 1
    19   27   35 1
    20   26   27 1
    21    4    8 2
    22   35   43 1
    23   40   43 1
    24   25   37 1
    25    4    5 1
    26    3    4 am
    27    5    6 2
    28    2    3 am
    29    1    6 1
    30    1    2 am
    31    2    7 2
    32    1    9 1
    33    9   14 1
    34   13   16 1
    35   40   41 2
    36   25   34 1
    37   22   34 1
    38   40   42 1
    39   25   26 1
    40   13   14 1
    41   22   24 2
    42   22   23 1
    43   26   33 1
    44   31   33 am
    45   31   39 2
    46   31   32 1
    47    3   45 1
    48    5   46 1
    49    6   47 1
    50    9   48 1
    51   10   49 1
    52   11   50 1
    53   12   51 1
    54   13   52 1
    55   15   53 1
    56   16   54 1
    57   16   55 1
    58   25   56 1
    59   26   57 1
    60   27   58 1
    61   28   59 1
    62   29   60 1
    63   30   61 1
    64   30   62 1
    65   32   63 1
    66   32   64 1
    67   32   65 1
    68   33   66 1
    69   36   67 1
    70   38   68 1
    71   44   69 1
    72   44   70 1
