@<TRIPOS>MOLECULE
*****
   48    49     0     0     0
SMALL
USER_CHARGES

@<TRIPOS>ATOM
      1 O1         40.1920   34.0940   44.9270 O.2       1 <0>        -0.5700
      2 O2         43.2850   36.5220   48.1860 O.co2     1 <0>        -0.9000
      3 O3         41.9880   37.6940   46.9090 O.co2     1 <0>        -0.9000
      4 O4         38.8040   33.6840   41.7050 O.co2     1 <0>        -0.9000
      5 O5         40.6740   32.5860   42.1270 O.co2     1 <0>        -0.9000
      6 N1         41.7710   34.4720   47.1180 N.4       1 <0>        -0.9060
      7 N2         41.7570   34.8740   43.4350 N.am      1 <0>        -0.6602
      8 C1         41.4150   34.3910   44.6760 C.2       1 <0>         0.5690
      9 C2         42.4920   34.1960   45.8130 C.3       1 <0>         0.5640
     10 C3         42.2070   36.6640   47.5300 C.2       1 <0>         0.9060
     11 C4         41.1980   35.5090   47.4850 C.3       1 <0>         0.3970
     12 C5         40.6840   35.0230   42.3630 C.3       1 <0>         0.1941
     13 C6         41.5090   35.5880   41.1790 C.3       1 <0>         0.0000
     14 C7         42.8210   35.7280   41.5570 C.3       1 <0>         0.0000
     15 C8         43.0940   35.3080   42.9330 C.3       1 <0>         0.3001
     16 C9         40.0410   33.6030   42.0400 C.2       1 <0>         0.9060
     17 C10        43.0740   32.7750   45.7120 C.3       1 <0>         0.0000
     18 C11        40.5060   35.7720   48.7790 C.3       1 <0>         0.0000
     19 C12        39.3030   36.6650   49.0290 C.3       1 <0>         0.1435
     20 C13        38.7470   36.7910   50.4110 C.ar      1 <0>        -0.1435
     21 C14        38.5240   35.6000   51.2570 C.ar      1 <0>        -0.1500
     22 C15        37.9710   35.7450   52.5950 C.ar      1 <0>        -0.1500
     23 C16        37.6300   37.0810   53.1110 C.ar      1 <0>        -0.1500
     24 C17        37.8500   38.2740   52.2740 C.ar      1 <0>        -0.1500
     25 C18        38.4070   38.1300   50.9260 C.ar      1 <0>        -0.1500
     26 H1         41.0432   33.7864   47.1316 H         1 <0>         0.4500
     27 H2         42.5622   34.5070   47.7285 H         1 <0>         0.4500
     28 H3         43.3518   34.8772   45.7307 H         1 <0>         0.0000
     29 H4         40.3919   35.3945   46.7453 H         1 <0>         0.0000
     30 H5         39.8313   35.6634   42.6329 H         1 <0>         0.0000
     31 H6         41.1057   36.5689   40.8873 H         1 <0>         0.0000
     32 H7         41.4464   34.8954   40.3267 H         1 <0>         0.0000
     33 H8         43.4354   35.1103   40.8854 H         1 <0>         0.0000
     34 H9         43.0590   36.8002   41.4964 H         1 <0>         0.0000
     35 H10        43.8243   34.4861   42.9669 H         1 <0>         0.0000
     36 H11        43.5394   36.1079   43.5427 H         1 <0>         0.0000
     37 H12        43.2129   32.5095   44.6536 H         1 <0>         0.0000
     38 H13        44.0441   32.7387   46.2293 H         1 <0>         0.0000
     39 H14        42.3809   32.0610   46.1810 H         1 <0>         0.0000
     40 H15        40.1636   34.7769   49.0991 H         1 <0>         0.0000
     41 H16        41.2815   36.3704   49.2795 H         1 <0>         0.0000
     42 H17        39.6055   37.6785   48.7268 H         1 <0>         0.0000
     43 H18        38.4939   36.1788   48.4643 H         1 <0>         0.0000
     44 H19        38.7724   34.6186   50.8808 H         1 <0>         0.1500
     45 H20        37.8106   34.8719   53.2101 H         1 <0>         0.1500
     46 H21        37.2183   37.1870   54.1038 H         1 <0>         0.1500
     47 H22        37.6009   39.2538   52.6538 H         1 <0>         0.1500
     48 H23        38.5681   39.0031   50.3111 H         1 <0>         0.1500
@<TRIPOS>BOND
     1   13   14 1
     2   12   13 1
     3   14   15 1
     4    4   16 2
     5    5   16 1
     6   12   16 1
     7    7   12 1
     8    7   15 1
     9    7    8 am
    10    1    8 2
    11    8    9 1
    12    9   17 1
    13    6    9 1
    14    3   10 2
    15    6   11 1
    16   10   11 1
    17   11   18 1
    18    2   10 1
    19   18   19 1
    20   19   20 1
    21   20   25 ar
    22   20   21 ar
    23   24   25 ar
    24   21   22 ar
    25   23   24 ar
    26   22   23 ar
    27    6   26 1
    28    6   27 1
    29    9   28 1
    30   11   29 1
    31   12   30 1
    32   13   31 1
    33   13   32 1
    34   14   33 1
    35   14   34 1
    36   15   35 1
    37   15   36 1
    38   17   37 1
    39   17   38 1
    40   17   39 1
    41   18   40 1
    42   18   41 1
    43   19   42 1
    44   19   43 1
    45   21   44 1
    46   22   45 1
    47   23   46 1
    48   24   47 1
    49   25   48 1
