@<TRIPOS>MOLECULE
*****
   18    17     0     0     0
SMALL
USER_CHARGES

@<TRIPOS>ATOM
      1 C1         15.3720   66.8500   24.6300 C.2       1 <0>         0.9060
      2 O1         16.5550   66.4880   24.8520 O.co2     1 <0>        -0.9000
      3 O2         14.4980   65.9970   24.2490 O.co2     1 <0>        -0.9000
      4 C2         14.9690   68.3090   24.8420 C.3       1 <0>        -0.1060
      5 C3         14.6660   68.6870   26.3310 C.3       1 <0>         0.1740
      6 O3         14.1310   67.5970   27.0880 O.3       1 <0>        -0.6800
      7 C4         13.6840   69.9260   26.3380 C.3       1 <0>        -0.1060
      8 C5         13.2480   70.3730   27.7670 C.2       1 <0>         0.9060
      9 O4         13.6320   69.7660   28.8180 O.co2     1 <0>        -0.9000
     10 O5         12.5070   71.3920   27.8960 O.co2     1 <0>        -0.9000
     11 C6         15.9960   69.1490   26.9680 C.2       1 <0>         0.9060
     12 O6         16.4670   68.5660   27.9590 O.co2     1 <0>        -0.9000
     13 O7         16.6140   70.1110   26.4510 O.co2     1 <0>        -0.9000
     14 H1         15.7993   68.9420   24.4956 H         1 <0>         0.0000
     15 H2         14.0364   68.4647   24.2798 H         1 <0>         0.0000
     16 H3         14.0124   66.8446   26.5202 H         1 <0>         0.4000
     17 H4         14.1981   70.7717   25.8578 H         1 <0>         0.0000
     18 H5         12.7731   69.6200   25.8027 H         1 <0>         0.0000
@<TRIPOS>BOND
     1    1    3 2
     2    1    4 1
     3    1    2 1
     4    4    5 1
     5    5    7 1
     6    5   11 1
     7    5    6 1
     8    7    8 1
     9   11   13 2
    10   11   12 1
    11    8   10 2
    12    8    9 1
    13    4   14 1
    14    4   15 1
    15    6   16 1
    16    7   17 1
    17    7   18 1
