@<TRIPOS>MOLECULE
*****
   40    42     0     0     0
SMALL
USER_CHARGES

@<TRIPOS>ATOM
      1 P1        -13.3360  -11.0470  -20.3200 P.3       1 <0>         1.3712
      2 O1        -12.9220  -10.2690  -19.1100 O.3       1 <0>        -1.0333
      3 O2        -14.0330  -12.3760  -20.0090 O.3       1 <0>        -1.0333
      4 O3        -12.1670  -11.2390  -21.3230 O.2       1 <0>        -1.0333
      5 O4        -14.4650  -10.1200  -21.1130 O.3       1 <0>        -0.5424
      6 P2        -15.2740  -10.4850  -22.3830 P.3       1 <0>         1.4424
      7 O5        -16.7220  -10.6330  -22.0740 O.3       1 <0>        -0.9500
      8 O6        -14.6090  -11.6820  -23.0490 O.2       1 <0>        -0.9500
      9 O7        -15.0220   -9.2210  -23.3600 O.3       1 <0>        -0.5512
     10 C1        -15.5650   -7.9490  -23.0190 C.3       1 <0>         0.2800
     11 C2        -14.6430   -6.8100  -23.3600 C.3       1 <0>         0.2800
     12 O8        -14.9380   -5.8680  -22.3050 O.3       1 <0>        -0.5600
     13 C3        -13.1340   -7.1330  -23.3080 C.3       1 <0>         0.2800
     14 O9        -12.5810   -6.3420  -24.4140 O.3       1 <0>        -0.6800
     15 C4        -12.6610   -6.5760  -21.9860 C.3       1 <0>         0.2800
     16 O10       -11.3760   -6.0360  -22.0620 O.3       1 <0>        -0.6800
     17 C5        -13.7910   -5.6010  -21.5630 C.3       1 <0>         0.5356
     18 N1        -14.1980   -5.8070  -20.0780 N.pl3     1 <0>         0.0476
     19 C6        -14.1600   -6.9850  -19.3810 C.2       1 <0>         0.0365
     20 N2        -14.5860   -6.7950  -18.1330 N.2       1 <0>        -0.5653
     21 C7        -14.9020   -5.4390  -18.0560 C.2       1 <0>         0.1412
     22 C8        -15.3990   -4.6760  -16.9790 C.2       1 <0>         0.7160
     23 O11       -15.6570   -5.1080  -15.8540 O.2       1 <0>        -0.5700
     24 N3        -15.5950   -3.3130  -17.2970 N.am      1 <0>        -0.4900
     25 C9        -15.3230   -2.7800  -18.5560 C.2       1 <0>         0.5600
     26 N4        -15.5450   -1.4710  -18.7550 N.pl3     1 <0>        -0.8500
     27 N5        -14.8490   -3.5150  -19.5770 N.2       1 <0>        -0.5760
     28 C10       -14.6660   -4.8220  -19.2520 C.2       1 <0>        -0.0256
     29 H1        -15.7517   -7.9312  -21.9351 H         1 <0>         0.0000
     30 H2        -16.4887   -7.8148  -23.6010 H         1 <0>         0.0000
     31 H3        -14.8107   -6.4813  -24.3962 H         1 <0>         0.0000
     32 H4        -12.8606   -8.1952  -23.3918 H         1 <0>         0.0000
     33 H5        -12.4615   -5.4427  -24.1320 H         1 <0>         0.4000
     34 H6        -12.5178   -7.3410  -21.2087 H         1 <0>         0.0000
     35 H7        -11.1370   -5.9133  -22.9732 H         1 <0>         0.4000
     36 H8        -13.4087   -4.5822  -21.7235 H         1 <0>         0.0000
     37 H9        -13.8320   -7.9315  -19.7846 H         1 <0>         0.1500
     38 H10       -15.9449   -2.7029  -16.5861 H         1 <0>         0.3700
     39 H11       -15.6002   -1.0039  -17.8725 H         1 <0>         0.4000
     40 H12       -14.7948   -1.0835  -19.2908 H         1 <0>         0.4000
@<TRIPOS>BOND
     1   13   14 1
     2   11   13 1
     3   10   11 1
     4   11   12 1
     5    9   10 1
     6    6    9 1
     7   13   15 1
     8    6    8 2
     9    6    7 1
    10    5    6 1
    11   12   17 1
    12   15   16 1
    13   15   17 1
    14   17   18 1
    15    1    4 2
    16    1    5 1
    17    1    3 1
    18    1    2 1
    19   18   19 1
    20   18   28 1
    21   27   28 1
    22   25   27 2
    23   19   20 2
    24   21   28 2
    25   25   26 1
    26   24   25 1
    27   20   21 1
    28   21   22 1
    29   22   24 am
    30   22   23 2
    31   10   29 1
    32   10   30 1
    33   11   31 1
    34   13   32 1
    35   14   33 1
    36   15   34 1
    37   16   35 1
    38   17   36 1
    39   19   37 1
    40   24   38 1
    41   26   39 1
    42   26   40 1
