@<TRIPOS>MOLECULE
*****
   50    52     0     0     0
SMALL
USER_CHARGES

@<TRIPOS>ATOM
      1 N1         61.5280   67.4880    7.5600 N.4       1 <0>        -0.8530
      2 C1         61.3530   68.9000    7.2400 C.3       1 <0>         0.3970
      3 C2         61.4990   69.0370    5.7160 C.2       1 <0>         0.9060
      4 O1         60.5610   68.6930    4.9770 O.co2     1 <0>        -0.9000
      5 O2         62.4300   69.6590    5.2120 O.co2     1 <0>        -0.9000
      6 C3         62.4090   69.7100    8.0120 C.3       1 <0>         0.0000
      7 C4         61.9270   70.8080    8.9740 C.3       1 <0>         0.1935
      8 S1         63.2730   71.7310    9.7930 S.3       1 <0>        -0.5805
      9 C5         63.8780   70.6570   11.0850 C.3       1 <0>         0.1935
     10 C6         62.4630   73.0350   10.7870 C.3       1 <0>         0.1935
     11 C7         61.8300   73.9450    9.8720 C.3       1 <0>         0.2800
     12 O3         60.8400   74.7810   10.5920 O.3       1 <0>        -0.5600
     13 C8         62.9510   74.9180    9.2950 C.3       1 <0>         0.2800
     14 O4         62.9610   74.9370    7.8290 O.3       1 <0>        -0.6800
     15 C9         62.5500   76.2880    9.8220 C.3       1 <0>         0.2800
     16 O5         62.7830   77.2710    8.8360 O.3       1 <0>        -0.6800
     17 C10        61.0480   76.1390   10.1020 C.3       1 <0>         0.5356
     18 N2         60.4080   77.3090   10.8400 N.pl3     1 <0>         0.0476
     19 C11        59.9200   78.4400   10.1890 C.2       1 <0>         0.0365
     20 N3         59.5020   79.3780   10.9880 N.2       1 <0>        -0.5653
     21 C12        59.7120   78.8570   12.2770 C.ar      1 <0>         0.2272
     22 C13        59.3920   79.3550   13.5640 C.ar      1 <0>         0.4100
     23 N4         58.8650   80.5710   13.7450 N.pl3     1 <0>        -0.9000
     24 N5         59.6380   78.5660   14.6330 N.ar      1 <0>        -0.6200
     25 C14        60.1880   77.3690   14.4330 C.ar      1 <0>         0.4700
     26 N6         60.5470   76.7880   13.2930 N.ar      1 <0>        -0.5670
     27 C15        60.2790   77.5960   12.2180 C.ar      1 <0>         0.1054
     28 H1         61.5681   66.9565    6.7139 H         1 <0>         0.4500
     29 H2         62.3786   67.3652    8.0712 H         1 <0>         0.4500
     30 H3         60.7572   67.1741    8.1144 H         1 <0>         0.4500
     31 H4         60.3664   69.2860    7.5359 H         1 <0>         0.0000
     32 H5         62.9778   68.9889    8.6174 H         1 <0>         0.0000
     33 H6         62.9668   70.2504    7.2330 H         1 <0>         0.0000
     34 H7         61.3280   71.5262    8.3948 H         1 <0>         0.0000
     35 H8         61.3554   70.3064    9.7688 H         1 <0>         0.0000
     36 H9         64.0024   69.6388   10.6878 H         1 <0>         0.0000
     37 H10        64.8472   71.0299   11.4476 H         1 <0>         0.0000
     38 H11        63.1569   70.6407   11.9155 H         1 <0>         0.0000
     39 H12        61.7133   72.5894   11.4574 H         1 <0>         0.0000
     40 H13        63.2019   73.5628   11.4079 H         1 <0>         0.0000
     41 H14        61.3299   73.3763    9.0742 H         1 <0>         0.0000
     42 H15        63.9590   74.6008    9.6006 H         1 <0>         0.0000
     43 H16        62.9632   75.8365    7.5235 H         1 <0>         0.4000
     44 H17        63.1173   76.5986   10.7118 H         1 <0>         0.0000
     45 H18        62.8353   78.1260    9.2468 H         1 <0>         0.4000
     46 H19        60.4494   76.2345    9.1841 H         1 <0>         0.0000
     47 H20        59.8911   78.5304    9.1132 H         1 <0>         0.1500
     48 H21        58.7335   80.7357   14.7225 H         1 <0>         0.4000
     49 H22        59.4842   81.2615   13.3712 H         1 <0>         0.4000
     50 H23        60.3678   76.7876   15.3252 H         1 <0>         0.1500
@<TRIPOS>BOND
     1    3    4 2
     2    3    5 1
     3    2    3 1
     4    1    2 1
     5    2    6 1
     6   13   14 1
     7    6    7 1
     8   15   16 1
     9    7    8 1
    10   13   15 1
    11   11   13 1
    12    8   10 1
    13    8    9 1
    14   15   17 1
    15   11   12 1
    16   10   11 1
    17   12   17 1
    18   17   18 1
    19   18   19 1
    20   19   20 2
    21   18   27 1
    22   20   21 1
    23   21   27 ar
    24   26   27 ar
    25   21   22 ar
    26   25   26 ar
    27   22   23 1
    28   22   24 ar
    29   24   25 ar
    30    1   28 1
    31    1   29 1
    32    1   30 1
    33    2   31 1
    34    6   32 1
    35    6   33 1
    36    7   34 1
    37    7   35 1
    38    9   36 1
    39    9   37 1
    40    9   38 1
    41   10   39 1
    42   10   40 1
    43   11   41 1
    44   13   42 1
    45   14   43 1
    46   15   44 1
    47   16   45 1
    48   17   46 1
    49   19   47 1
    50   23   48 1
    51   23   49 1
    52   25   50 1
