@<TRIPOS>MOLECULE
*****
   50    52     0     0     0
SMALL
USER_CHARGES

@<TRIPOS>ATOM
      1 N1         19.7690   29.6600   59.1930 N.4       1 <0>        -0.8530
      2 C1         19.1920   28.7030   58.2990 C.3       1 <0>         0.3970
      3 C2         19.2140   27.4800   59.2220 C.2       1 <0>         0.9060
      4 O1         19.0200   27.5980   60.5030 O.co2     1 <0>        -0.9000
      5 O2         18.7290   26.3710   58.7470 O.co2     1 <0>        -0.9000
      6 C3         20.1690   28.5290   57.1570 C.3       1 <0>         0.0000
      7 C4         19.9600   29.4580   55.9600 C.3       1 <0>         0.1935
      8 S1         21.2010   29.1440   54.6740 S.3       1 <0>        -0.5805
      9 C5         22.7820   29.9910   54.8290 C.3       1 <0>         0.1935
     10 C6         20.9600   30.4790   53.4820 C.3       1 <0>         0.1935
     11 C7         19.6660   30.4080   52.7930 C.3       1 <0>         0.2800
     12 O3         19.6030   31.5260   51.9190 O.3       1 <0>        -0.5600
     13 C8         19.4570   29.1430   51.9210 C.3       1 <0>         0.2800
     14 O4         18.2850   28.4380   52.4150 O.3       1 <0>        -0.6800
     15 C9         19.2230   29.8000   50.5030 C.3       1 <0>         0.2800
     16 O5         18.2460   29.0460   49.7000 O.3       1 <0>        -0.6800
     17 C10        18.6630   31.2080   50.8670 C.3       1 <0>         0.5356
     18 N2         18.8360   32.2850   49.8320 N.pl3     1 <0>         0.0476
     19 C11        19.8280   32.3370   48.8520 C.2       1 <0>         0.0365
     20 N3         19.7770   33.3980   48.0750 N.2       1 <0>        -0.5653
     21 C12        18.6550   34.1530   48.5630 C.ar      1 <0>         0.2272
     22 C13        18.0690   35.4280   48.1490 C.ar      1 <0>         0.4100
     23 N4         18.5540   36.1850   47.1160 N.pl3     1 <0>        -0.9000
     24 N5         16.9930   35.8350   48.8600 N.ar      1 <0>        -0.6200
     25 C14        16.5060   35.0970   49.8840 C.ar      1 <0>         0.4700
     26 N6         16.9420   33.9090   50.3780 N.ar      1 <0>        -0.5670
     27 C15        18.0590   33.4750   49.6470 C.ar      1 <0>         0.1054
     28 H1         19.9036   29.2397   60.0904 H         1 <0>         0.4500
     29 H2         20.6506   29.9640   58.8319 H         1 <0>         0.4500
     30 H3         19.1559   30.4451   59.2815 H         1 <0>         0.4500
     31 H4         18.2081   28.9291   57.8621 H         1 <0>         0.0000
     32 H5         20.0715   27.4953   56.7937 H         1 <0>         0.0000
     33 H6         21.1603   28.7763   57.5645 H         1 <0>         0.0000
     34 H7         20.0488   30.5015   56.2965 H         1 <0>         0.0000
     35 H8         18.9610   29.2715   55.5391 H         1 <0>         0.0000
     36 H9         23.2056   30.1638   53.8287 H         1 <0>         0.0000
     37 H10        22.6327   30.9560   55.3354 H         1 <0>         0.0000
     38 H11        23.4738   29.3707   55.4177 H         1 <0>         0.0000
     39 H12        21.7572   30.4155   52.7267 H         1 <0>         0.0000
     40 H13        20.9863   31.4275   54.0385 H         1 <0>         0.0000
     41 H14        18.8915   30.3864   53.5738 H         1 <0>         0.0000
     42 H15        20.2699   28.4020   51.9163 H         1 <0>         0.0000
     43 H16        18.3772   28.2843   53.3479 H         1 <0>         0.4000
     44 H17        20.1369   29.8255   49.8913 H         1 <0>         0.0000
     45 H18        17.4670   28.8836   50.2189 H         1 <0>         0.4000
     46 H19        17.5795   31.1766   51.0544 H         1 <0>         0.0000
     47 H20        20.5779   31.5679   48.7401 H         1 <0>         0.1500
     48 H21        18.6722   37.1299   47.4214 H         1 <0>         0.4000
     49 H22        19.4356   35.8180   46.8193 H         1 <0>         0.4000
     50 H23        15.6432   35.5139   50.3823 H         1 <0>         0.1500
@<TRIPOS>BOND
     1   22   23 1
     2   20   21 1
     3   19   20 2
     4   21   22 ar
     5   22   24 ar
     6   21   27 ar
     7   18   19 1
     8   24   25 ar
     9   18   27 1
    10   26   27 ar
    11   15   16 1
    12   17   18 1
    13   25   26 ar
    14   15   17 1
    15   13   15 1
    16   12   17 1
    17   11   12 1
    18   13   14 1
    19   11   13 1
    20   10   11 1
    21    8   10 1
    22    8    9 1
    23    7    8 1
    24    6    7 1
    25    2    6 1
    26    1    2 1
    27    2    3 1
    28    3    5 2
    29    3    4 1
    30    1   28 1
    31    1   29 1
    32    1   30 1
    33    2   31 1
    34    6   32 1
    35    6   33 1
    36    7   34 1
    37    7   35 1
    38    9   36 1
    39    9   37 1
    40    9   38 1
    41   10   39 1
    42   10   40 1
    43   11   41 1
    44   13   42 1
    45   14   43 1
    46   15   44 1
    47   16   45 1
    48   17   46 1
    49   19   47 1
    50   23   48 1
    51   23   49 1
    52   25   50 1
