@<TRIPOS>MOLECULE
*****
   36    37     0     0     0
SMALL
USER_CHARGES

@<TRIPOS>ATOM
      1 C1          1.7680    7.4270   36.0920 C.2       1 <0>         0.9060
      2 C2          3.0530    7.2230   36.9060 C.3       1 <0>         0.4540
      3 C3          4.2560    6.8830   36.0050 C.3       1 <0>         0.0000
      4 C4          5.5340    7.4440   36.6730 C.3       1 <0>         0.2800
      5 C5          5.4650    7.2660   38.2090 C.3       1 <0>         0.3001
      6 C6          4.1370    7.8770   38.7600 C.3       1 <0>         0.2800
      7 C7          3.3370    6.6370   39.1520 C.3       1 <0>         0.2800
      8 C8          2.1760    6.9530   40.1070 C.3       1 <0>         0.2800
      9 C9          2.6820    7.4980   41.4450 C.3       1 <0>         0.2800
     10 C10         7.1680    7.2720   39.9300 C.2       1 <0>         0.5690
     11 C11         8.4120    7.9110   40.5140 C.3       1 <0>         0.0610
     12 N1          6.6420    7.8350   38.8460 N.am      1 <0>        -0.7301
     13 O1          1.6940    6.9370   34.9390 O.co2     1 <0>        -0.9000
     14 O2          0.8070    8.0350   36.6120 O.co2     1 <0>        -0.9000
     15 O3          6.7030    6.8060   36.1580 O.3       1 <0>        -0.6800
     16 O4          3.3970    8.3890   37.6460 O.3       1 <0>        -0.5600
     17 O5          2.8080    6.1840   37.8820 O.3       1 <0>        -0.5600
     18 O6          1.3030    7.9020   39.5080 O.3       1 <0>        -0.6800
     19 O7          3.0490    8.8610   41.2910 O.3       1 <0>        -0.6800
     20 O8          6.6610    6.3010   40.4940 O.2       1 <0>        -0.5700
     21 H1          4.1213    7.3387   35.0129 H         1 <0>         0.0000
     22 H2          4.3403    5.7934   35.8799 H         1 <0>         0.0000
     23 H3          5.5942    8.5175   36.4408 H         1 <0>         0.0000
     24 H4          5.4604    6.1928   38.4501 H         1 <0>         0.0000
     25 H5          4.3073    8.6327   39.5409 H         1 <0>         0.0000
     26 H6          3.9588    5.9027   39.6851 H         1 <0>         0.0000
     27 H7          1.6344    6.0153   40.3007 H         1 <0>         0.0000
     28 H8          1.8860    7.4153   42.1996 H         1 <0>         0.0000
     29 H9          3.5571    6.9166   41.7710 H         1 <0>         0.0000
     30 H10         9.1540    8.0658   39.7169 H         1 <0>         0.0000
     31 H11         8.1496    8.8800   40.9637 H         1 <0>         0.0000
     32 H12         8.8353    7.2509   41.2854 H         1 <0>         0.0000
     33 H13         7.0607    8.6591   38.4645 H         1 <0>         0.3700
     34 H14         6.6016    6.6643   35.2241 H         1 <0>         0.4000
     35 H15         1.1083    8.5916   40.1317 H         1 <0>         0.4000
     36 H16         3.1310    9.2659   42.1465 H         1 <0>         0.4000
@<TRIPOS>BOND
     1    1   13 2
     2    3    4 1
     3    2    3 1
     4    1   14 1
     5    1    2 1
     6    4   15 1
     7    4    5 1
     8    2   16 1
     9    2   17 1
    10    6   16 1
    11    7   17 1
    12    5    6 1
    13    5   12 1
    14    6    7 1
    15   10   12 am
    16    7    8 1
    17    8   18 1
    18   10   20 2
    19   10   11 1
    20    8    9 1
    21    9   19 1
    22    3   21 1
    23    3   22 1
    24    4   23 1
    25    5   24 1
    26    6   25 1
    27    7   26 1
    28    8   27 1
    29    9   28 1
    30    9   29 1
    31   11   30 1
    32   11   31 1
    33   11   32 1
    34   12   33 1
    35   15   34 1
    36   18   35 1
    37   19   36 1
