@<TRIPOS>MOLECULE
*****
   58    61     0     0     0
SMALL
USER_CHARGES

@<TRIPOS>ATOM
      1 C1         20.0240   34.6770   34.4440 C.2       1 <0>        -0.0615
      2 O1         19.4270   35.1540   33.4400 O.3       1 <0>        -0.5267
      3 C2         19.4490   33.6450   35.2170 C.2       1 <0>         0.0144
      4 C3         18.2350   33.0190   34.8350 C.2       1 <0>         0.6156
      5 O2         17.7690   32.0500   35.4740 O.2       1 <0>        -0.5700
      6 N1         17.5240   33.4260   33.7350 N.am      1 <0>        -0.8000
      7 C4         20.1860   33.2210   36.3280 C.2       1 <0>         0.0767
      8 O3         19.9490   31.9800   36.9210 O.3       1 <0>        -0.5267
      9 C5         21.2760   34.0960   36.9710 C.2       1 <0>        -0.0382
     10 N2         22.1990   33.2230   37.8670 N.pl3     1 <0>        -0.8382
     11 C6         23.1470   32.4270   36.9420 C.3       1 <0>         0.3691
     12 C7         23.0540   34.0390   38.8550 C.3       1 <0>         0.3691
     13 C8         21.8650   35.2600   36.1560 C.3       1 <0>         0.1382
     14 C9         21.0780   36.4830   36.5180 C.3       1 <0>         0.0000
     15 C10        21.6710   37.6600   35.8020 C.3       1 <0>         0.1382
     16 C11        21.0570   39.0050   36.1180 C.3       1 <0>         0.4235
     17 O4         19.6520   38.8690   36.1040 O.3       1 <0>        -0.6800
     18 C12        21.6450   39.3070   37.5100 C.3       1 <0>         0.0000
     19 C13        21.4820   40.1530   35.1650 C.ar      1 <0>        -0.1435
     20 C14        21.1450   41.4940   35.4570 C.ar      1 <0>         0.1770
     21 Cl1        19.9640   41.9040   36.6890 Cl        1 <0>        -0.1770
     22 C15        21.6940   42.5250   34.7460 C.ar      1 <0>        -0.1500
     23 C16        22.5630   42.2540   33.7100 C.ar      1 <0>        -0.1500
     24 C17        22.8370   40.9520   33.3300 C.ar      1 <0>         0.0825
     25 O5         23.3720   40.7700   32.0440 O.3       1 <0>        -0.5325
     26 C18        22.2920   39.8620   34.0520 C.ar      1 <0>         0.0284
     27 C19        22.3490   38.5290   33.5460 C.2       1 <0>         0.0483
     28 O6         22.9140   38.2950   32.4420 O.3       1 <0>        -0.5267
     29 C20        21.9420   37.4400   34.3070 C.2       1 <0>        -0.2764
     30 C21        22.0970   36.1260   33.8530 C.3       1 <0>         0.4182
     31 O7         22.5860   35.8350   32.5360 O.3       1 <0>        -0.6800
     32 C22        21.5370   34.9870   34.6480 C.3       1 <0>         0.4182
     33 O8         22.3260   33.8580   34.2930 O.3       1 <0>        -0.6800
     34 H1         18.5072   35.2739   33.6453 H         1 <0>         0.4500
     35 H2         18.0000   34.1893   33.2982 H         1 <0>         0.3700
     36 H3         16.6649   33.0229   33.4195 H         1 <0>         0.3700
     37 H4         19.8951   31.3119   36.2477 H         1 <0>         0.4500
     38 H5         22.6481   32.2379   35.9801 H         1 <0>         0.0000
     39 H6         24.0651   33.0081   36.7707 H         1 <0>         0.0000
     40 H7         23.4026   31.4683   37.4169 H         1 <0>         0.0000
     41 H8         24.0419   34.2335   38.4120 H         1 <0>         0.0000
     42 H9         22.5539   34.9950   39.0696 H         1 <0>         0.0000
     43 H10        23.1767   33.4711   39.7891 H         1 <0>         0.0000
     44 H11        22.9438   35.3709   36.3402 H         1 <0>         0.0000
     45 H12        21.1230   36.6468   37.6048 H         1 <0>         0.0000
     46 H13        20.0260   36.3544   36.2236 H         1 <0>         0.0000
     47 H14        22.6688   37.7214   36.2609 H         1 <0>         0.0000
     48 H15        19.3275   38.8384   36.9963 H         1 <0>         0.4000
     49 H16        22.7403   39.3790   37.4382 H         1 <0>         0.0000
     50 H17        21.2386   40.2596   37.8807 H         1 <0>         0.0000
     51 H18        21.3758   38.4979   38.2049 H         1 <0>         0.0000
     52 H19        21.4482   43.5468   34.9946 H         1 <0>         0.1500
     53 H20        23.0373   43.0712   33.1868 H         1 <0>         0.1500
     54 H21        22.6660   40.7289   31.4097 H         1 <0>         0.4500
     55 H22        22.2588   38.2362   31.7566 H         1 <0>         0.4500
     56 H23        23.0941   36.2924   34.2867 H         1 <0>         0.0000
     57 H24        21.8546   35.7707   31.9332 H         1 <0>         0.4000
     58 H25        22.5019   33.8749   33.3596 H         1 <0>         0.4000
@<TRIPOS>BOND
     1   24   25 1
     2   27   28 1
     3   30   31 1
     4   23   24 ar
     5   24   26 ar
     6    1    2 1
     7   26   27 1
     8   27   29 2
     9   22   23 ar
    10    4    6 am
    11   29   30 1
    12   30   32 1
    13   19   26 ar
    14   32   33 1
    15   15   29 1
    16    1   32 1
    17    1    3 2
    18   13   32 1
    19   20   22 ar
    20    3    4 1
    21    4    5 2
    22   19   20 ar
    23   16   19 1
    24    3    7 1
    25   20   21 1
    26   15   16 1
    27   14   15 1
    28   16   17 1
    29   16   18 1
    30   13   14 1
    31    9   13 1
    32    7    8 1
    33    7    9 2
    34   10   11 1
    35    9   10 1
    36   10   12 1
    37    2   34 1
    38    6   35 1
    39    6   36 1
    40    8   37 1
    41   11   38 1
    42   11   39 1
    43   11   40 1
    44   12   41 1
    45   12   42 1
    46   12   43 1
    47   13   44 1
    48   14   45 1
    49   14   46 1
    50   15   47 1
    51   17   48 1
    52   18   49 1
    53   18   50 1
    54   18   51 1
    55   22   52 1
    56   23   53 1
    57   25   54 1
    58   28   55 1
    59   30   56 1
    60   31   57 1
    61   33   58 1
