@<TRIPOS>MOLECULE
*****
   10     9     0     0     0
SMALL
USER_CHARGES

@<TRIPOS>ATOM
      1 C1         28.7920   70.4290   75.7530 C.3       1 <0>         0.0610
      2 C2         29.3160   71.3430   74.6690 C.2       1 <0>         0.5690
      3 O1         30.0940   70.8880   73.8170 O.2       1 <0>        -0.5700
      4 N1         28.9430   72.6160   74.6960 N.am      1 <0>        -0.3945
      5 O2         29.3460   73.3980   73.6140 O.3       1 <0>        -0.4355
      6 H1         28.6647   69.4143   75.3479 H         1 <0>         0.0000
      7 H2         29.5075   70.4032   76.5881 H         1 <0>         0.0000
      8 H3         27.8224   70.8045   76.1118 H         1 <0>         0.0000
      9 H4         28.4038   72.9931   75.4491 H         1 <0>         0.3700
     10 H5         29.4376   74.3016   73.8925 H         1 <0>         0.4000
@<TRIPOS>BOND
     1    1    2 1
     2    2    3 2
     3    2    4 am
     4    4    5 1
     5    1    6 1
     6    1    7 1
     7    1    8 1
     8    4    9 1
     9    5   10 1
