#
#	  Creating user name:		vanvoor4 InsightII
#	  Creation time:     		Thu Mar  9 15:30:12 2006

@<TRIPOS>MOLECULE
LIGAND_1EQM
   27    29     1     0     0                                                  
SMALL
USER_CHARGES
@<TRIPOS>ATOM
      1 PB         16.6390    5.9320    5.2250 P         1 ADP171     0.0000 ****               
      2 O1B        16.7650    4.4550    5.0370 O.2       1 ADP171     0.0000 ****               
      3 O2B        15.6470    6.4110    6.1850 O.2       1 ADP171     0.0000 ****               
      4 O3B        18.1260    6.5380    5.5660 O.2       1 ADP171     0.0000 ****               
      5 PA         16.2870    7.9570    3.1450 P         1 ADP171     0.0000 ****               
      6 O1A        15.9590    7.8090    1.7220 O.2       1 ADP171     0.0000 ****               
      7 O2A        15.4230    8.8320    3.9830 O.2       1 ADP171     0.0000 ****               
      8 O3A        16.4450    6.5190    3.7930 O.3       1 ADP171     0.0000 ****               
      9 O5'        17.7540    8.4560    3.2500 O.3       1 ADP171     0.0000 ****               
     10 C5'        18.8090    8.0830    2.3550 C.3       1 ADP171     0.0000 ****               
     11 C4'        19.9660    9.0170    2.4990 C.3       1 ADP171     0.0000 ****               
     12 O4'        20.3270    9.1020    3.9060 O.3       1 ADP171     0.0000 ****               
     13 C3'        21.1930    8.5620    1.7770 C.3       1 ADP171     0.0000 ****               
     14 O3'        21.4950    9.3860    0.6520 O.3       1 ADP171     0.0000 ****               
     15 C2'        22.2610    8.4170    2.8090 C.3       1 ADP171     0.0000 ****               
     16 O2'        23.5070    8.9640    2.3920 O.3       1 ADP171     0.0000 ****               
     17 C1'        21.7550    9.2230    4.0130 C.3       1 ADP171     0.0000 ****               
     18 N9         22.2190    8.7760    5.3500 N.3       1 ADP171     0.0000 ****               
     19 C8         22.6490    9.5700    6.3880 C.2       1 ADP171     0.0000 ****               
     20 N7         23.0080    8.9390    7.4570 N.3       1 ADP171     0.0000 ****               
     21 C5         22.8300    7.6170    7.1120 C.2       1 ADP171     0.0000 ****               
     22 C6         23.0330    6.4260    7.8540 C.2       1 ADP171     0.0000 ****               
     23 N6         23.4630    6.4590    9.1070 N.3       1 ADP171     0.0000 ****               
     24 N1         22.6790    5.2690    7.2680 N.3       1 ADP171     0.0000 ****               
     25 C2         22.2340    5.2750    6.0200 C.2       1 ADP171     0.0000 ****               
     26 N3         22.0470    6.3190    5.1990 N.3       1 ADP171     0.0000 ****               
     27 C4         22.3160    7.4970    5.8450 C.2       1 ADP171     0.0000 ****               
@<TRIPOS>BOND
    1     1     2 1
    2     1     3 1
    3     1     4 1
    4     1     8 1
    5     5     6 1
    6     5     7 1
    7     5     8 1
    8     5     9 1
    9     9    10 1
   10    10    11 1
   11    11    12 1
   12    11    13 1
   13    12    17 1
   14    13    14 1
   15    13    15 1
   16    15    16 1
   17    15    17 1
   18    17    18 1
   19    18    19 1
   20    18    27 1
   21    19    20 1
   22    20    21 1
   23    21    22 1
   24    21    27 1
   25    22    23 1
   26    22    24 1
   27    24    25 1
   28    25    26 1
   29    26    27 1
@<TRIPOS>SUBSTRUCTURE
      1 ADP171             1 ****               0 ****  ****    
