@<TRIPOS>MOLECULE
*****
   74    77     0     0     0
SMALL
USER_CHARGES

@<TRIPOS>ATOM
      1 C1         18.1620   26.6830   16.0970 C.3       1 <0>         0.0000
      2 C2         16.6490   26.9790   16.2050 C.3       1 <0>         0.0000
      3 C3         15.9100   25.7820   16.8160 C.3       1 <0>         0.2800
      4 C4         16.4600   25.5010   18.2320 C.3       1 <0>         0.1382
      5 C5         17.9500   25.2840   18.1690 C.2       1 <0>        -0.2764
      6 C6         18.4660   24.2240   18.7960 C.2       1 <0>        -0.2882
      7 C7         19.9330   23.9290   18.9580 C.3       1 <0>         0.1382
      8 C8         20.7970   25.1260   18.5420 C.3       1 <0>         0.0000
      9 C9         20.2170   25.7950   17.2610 C.3       1 <0>         0.0000
     10 C10        18.7870   26.3410   17.4780 C.3       1 <0>         0.1382
     11 C11        21.1900   26.8660   16.7210 C.3       1 <0>         0.0000
     12 C12        22.6770   26.4180   16.6340 C.3       1 <0>         0.0000
     13 C13        23.1500   25.8270   17.9850 C.3       1 <0>         0.0000
     14 C14        22.2140   24.6490   18.2490 C.3       1 <0>         0.0000
     15 C15        22.8740   23.8550   19.3820 C.3       1 <0>         0.0000
     16 C16        24.3780   24.0460   19.1290 C.3       1 <0>         0.0000
     17 C17        24.4980   25.0670   17.9550 C.3       1 <0>         0.0000
     18 C18        23.0690   26.9140   19.1010 C.3       1 <0>         0.0000
     19 C19        18.7480   27.5930   18.4080 C.3       1 <0>         0.0000
     20 C20        25.7960   25.8950   18.0620 C.3       1 <0>         0.0000
     21 C21        25.9120   26.8450   16.8440 C.3       1 <0>         0.0000
     22 C22        27.0790   25.0440   18.1720 C.3       1 <0>         0.0000
     23 C23        27.2530   23.9450   17.1080 C.3       1 <0>         0.0000
     24 C24        28.7280   23.4400   17.1320 C.3       1 <0>         0.0000
     25 C25        28.9200   22.2710   16.1490 C.3       1 <0>         0.0000
     26 C26        30.4380   22.0740   15.9350 C.3       1 <0>         0.0000
     27 C27        28.3000   20.9910   16.7550 C.3       1 <0>         0.0000
     28 O1         14.5130   26.0470   16.9670 O.3       1 <0>        -0.6800
     29 H1         18.3055   25.8250   15.4237 H         1 <0>         0.0000
     30 H2         18.6598   27.5846   15.7106 H         1 <0>         0.0000
     31 H3         16.4989   27.8606   16.8456 H         1 <0>         0.0000
     32 H4         16.2500   27.1677   15.1974 H         1 <0>         0.0000
     33 H5         16.0613   24.9295   16.1376 H         1 <0>         0.0000
     34 H6         16.2443   26.3605   18.8838 H         1 <0>         0.0000
     35 H7         15.9787   24.5979   18.6354 H         1 <0>         0.0000
     36 H8         17.7705   23.5172   19.2239 H         1 <0>         0.1500
     37 H9         20.1931   23.0674   18.3256 H         1 <0>         0.0000
     38 H10        20.1275   23.7141   20.0191 H         1 <0>         0.0000
     39 H11        20.8033   25.8585   19.3626 H         1 <0>         0.0000
     40 H12        20.1194   25.0180   16.4886 H         1 <0>         0.0000
     41 H13        21.1412   27.7327   17.3966 H         1 <0>         0.0000
     42 H14        20.8706   27.0855   15.6915 H         1 <0>         0.0000
     43 H15        22.7761   25.6510   15.8518 H         1 <0>         0.0000
     44 H16        23.2976   27.2938   16.3935 H         1 <0>         0.0000
     45 H17        22.0833   23.9957   17.3737 H         1 <0>         0.0000
     46 H18        22.5794   24.2411   20.3690 H         1 <0>         0.0000
     47 H19        22.5754   22.7963   19.3889 H         1 <0>         0.0000
     48 H20        24.8485   23.0893   18.8583 H         1 <0>         0.0000
     49 H21        24.8903   24.4133   20.0305 H         1 <0>         0.0000
     50 H22        24.6248   24.6238   16.9563 H         1 <0>         0.0000
     51 H23        23.0499   26.4271   20.0872 H         1 <0>         0.0000
     52 H24        23.9470   27.5734   19.0348 H         1 <0>         0.0000
     53 H25        22.1528   27.5081   18.9680 H         1 <0>         0.0000
     54 H26        18.7388   27.2694   19.4593 H         1 <0>         0.0000
     55 H27        19.6368   28.2144   18.2236 H         1 <0>         0.0000
     56 H28        17.8408   28.1781   18.1969 H         1 <0>         0.0000
     57 H29        25.7181   26.4630   19.0008 H         1 <0>         0.0000
     58 H30        25.9395   27.8878   17.1930 H         1 <0>         0.0000
     59 H31        26.8351   26.6195   16.2899 H         1 <0>         0.0000
     60 H32        25.0436   26.7023   16.1840 H         1 <0>         0.0000
     61 H33        27.0615   24.5496   19.1545 H         1 <0>         0.0000
     62 H34        27.9161   25.7418   18.0229 H         1 <0>         0.0000
     63 H35        27.0193   24.3538   16.1139 H         1 <0>         0.0000
     64 H36        26.5718   23.1089   17.3245 H         1 <0>         0.0000
     65 H37        28.9741   23.0986   18.1483 H         1 <0>         0.0000
     66 H38        29.3898   24.2662   16.8330 H         1 <0>         0.0000
     67 H39        28.4283   22.4822   15.1879 H         1 <0>         0.0000
     68 H40        30.6539   22.0272   14.8574 H         1 <0>         0.0000
     69 H41        30.9837   22.9182   16.3818 H         1 <0>         0.0000
     70 H42        30.7568   21.1363   16.4136 H         1 <0>         0.0000
     71 H43        28.1527   20.2433   15.9618 H         1 <0>         0.0000
     72 H44        28.9758   20.5839   17.5215 H         1 <0>         0.0000
     73 H45        27.3301   21.2351   17.2130 H         1 <0>         0.0000
     74 H46        14.2994   26.1058   17.8908 H         1 <0>         0.4000
@<TRIPOS>BOND
     1   25   26 1
     2    1    2 1
     3    1   10 1
     4   25   27 1
     5   24   25 1
     6    2    3 1
     7   11   12 1
     8   12   13 1
     9    9   11 1
    10    3   28 1
    11    3    4 1
    12   20   21 1
    13   23   24 1
    14   22   23 1
    15    9   10 1
    16    8    9 1
    17    5   10 1
    18   10   19 1
    19   13   17 1
    20   17   20 1
    21   16   17 1
    22   13   14 1
    23   13   18 1
    24   20   22 1
    25    4    5 1
    26    5    6 2
    27    8   14 1
    28   14   15 1
    29    7    8 1
    30    6    7 1
    31   15   16 1
    32    1   29 1
    33    1   30 1
    34    2   31 1
    35    2   32 1
    36    3   33 1
    37    4   34 1
    38    4   35 1
    39    6   36 1
    40    7   37 1
    41    7   38 1
    42    8   39 1
    43    9   40 1
    44   11   41 1
    45   11   42 1
    46   12   43 1
    47   12   44 1
    48   14   45 1
    49   15   46 1
    50   15   47 1
    51   16   48 1
    52   16   49 1
    53   17   50 1
    54   18   51 1
    55   18   52 1
    56   18   53 1
    57   19   54 1
    58   19   55 1
    59   19   56 1
    60   20   57 1
    61   21   58 1
    62   21   59 1
    63   21   60 1
    64   22   61 1
    65   22   62 1
    66   23   63 1
    67   23   64 1
    68   24   65 1
    69   24   66 1
    70   25   67 1
    71   26   68 1
    72   26   69 1
    73   26   70 1
    74   27   71 1
    75   27   72 1
    76   27   73 1
    77   28   74 1
